*Heading
** Job name: rec Model name: Model-1
** Generated by: Abaqus/CAE 2021
*Preprint, echo=NO, model=NO, history=NO, contact=NO
**
** PARTS
**
*Part, name=block
*Node
      1,           0.,           0.,         110.
      2,           0.,           0.,          90.
      3,           0.,   2.01756644,    109.94899
      4,           0.,   4.02987623,   109.794899
      5,           0.,   6.03118181,   109.534477
      6,           0.,   8.01464176,   109.161949
      7,           0.,   9.97145367,    108.66848
      8,           0.,   11.8894377,   108.041161
      9,           0.,    13.750535,   107.261589
     10,           0.,   15.5260038,   106.303635
     11,           0.,   17.1666584,   105.130936
     12,           0.,   18.5827141,   103.697388
     13,           0.,   19.6090298,   101.967613
     14,           0.,          20.,         100.
     15,           0.,   19.6090298,   98.0323868
     16,           0.,   18.5827141,   96.3026123
     17,           0.,   17.1666584,   94.8690643
     18,           0.,   15.5260038,   93.6963654
     19,           0.,    13.750535,   92.7384109
     20,           0.,   11.8894377,   91.9588394
** ... 3032 like lines cut
*Element, type=C3D4
    1, 1011, 1012, 1013, 1014
    2, 1015, 1016, 1017, 1018
    3, 1015, 1019, 1014, 1020
    4, 1015, 1018, 1021, 1014
    5, 1015, 1019, 1020, 1022
    6, 1023, 1017, 1024, 1025
    7, 1016, 1017, 1023, 1026
    8, 1017, 1023, 1026, 1025
    9, 1025, 1027, 1028, 1026
   10, 1025, 1029, 1017, 1024
   11, 1025, 1030, 1028, 1029
   12, 1019, 1031, 1022, 1032
   13, 1019, 1032, 1033, 1031
   14, 1034,  486,  385, 1035
   15, 1015, 1017, 1026, 1027
   16, 1019, 1033, 1036, 1037
   17, 1015, 1019, 1022, 1032
   18, 1019, 1036, 1032, 1038
   19, 1039, 1040, 1041, 1042
   20, 1039, 1043, 1044, 1045
** ... 15120 like lines cut
*Nset, nset=Set-1, generate
    1,  3052,     1
*Elset, elset=Set-1, generate
     1,  15140,      1
*Elset, elset=_contact_S3, internal
    28,   113,   114,   145,   298,   363,   364,   419,   427,   462,   485,   500,   557,   585,   586,   667
   692,   699,   807,   873,   924,  1023,  1045,  1129,  1158,  1202,  1381,  1382,  1405,  1417,  1449,  1494
  1507,  1521,  1539,  1549,  1614,  1617,  1627,  1629,  1633,  1642,  1643,  1646,  1649,  1650,  1653,  1654
  1656,  1658,  1659,  1660,  1661,  1662,  1665,  1667,  1672,  1678,  1681,  1683,  1688,  1689,  1698,  1704
  1706,  1707,  1713,  1716,  1721,  1731,  1732,  1737,  1741,  1746,  1750,  1751,  1754,  1755,  1763,  1764
  1765,  1770,  1775,  1776,  1779,  1780,  1781,  1790,  1795,  1800,  1801,  1804,  1807,  1808,  1809,  1812
  1813,  1814,  1817,  1818,  1821,  1822,  1823,  1825,  1827,  1831,  1837,  1841,  1843,  1852,  1854,  1856
  1860,  1862,  1867,  1871,  1878,  1882,  1883,  1884,  1888,  1890,  1891,  1892,  1893,  1894,  1897,  1904
  1905,  1906,  1910,  1913,  1915,  1920,  1921,  1924,  1927,  1928,  1935,  1936,  1940,  1942,  1943,  1946
  1947,  1949,  1950,  1953,  1954,  1956,  1957,  1958,  1960,  1963,  1964,  1970,  1971,  1974,  1975,  1976
  1978,  1979,  1987,  1990,  1992,  1995,  1998,  2005,  2007,  2013,  2014,  2023,  2024,  2027,  2032,  2035
  2039,  2040,  2050,  2055,  2059,  2061,  2065,  2067,  2068,  2071,  2074,  2076,  2086,  2089,  2090,  2092
  2099,  2101,  2102,  2103,  2106,  2109,  2112,  2117,  2118,  2120,  2123,  2124,  2127,  2129,  2134,  2138
  2141,  2144,  2145,  2147,  2148,  2149,  2152,  2154,  2155,  2162,  2163,  2165,  2170,  2172,  2173,  2178
  2179,  2180,  2184,  2185,  2187,  2191,  2193,  2195,  2196,  2203,  2205,  2206,  2209,  2212,  2221,  2226
  2227,  2231,  2233,  2236,  2237,  2243,  2244,  2245,  2246,  2248,  2257,  2259,  2261,  2271,  2273,  2275
  2276,  2282,  2289,  2290,  2291,  2297,  2301,  2304,  2306,  2312,  2313,  2317,  2319,  2320,  2332,  2338
  2339,  2343,  2344,  2350,  2351,  2352,  2359,  2360,  2361,  2368,  2373,  2380,  2381,  2386,  2387,  2389
  2390,  2396,  2397,  2400,  2408,  2409,  2411,  2415,  2416,  2420,  2431,  2432,  2436,  2441,  2443,  2450
  2456,  2460,  2461,  2462,  2463,  2467,  2468,  2469,  2474,  2475,  2476,  2477,  2487,  2488,  2491,  2492
** ... 99 like lines cut
*Elset, elset=_contact_S2, internal
    47,  1789,  2064,  2128,  2136,  2153,  2354,  2445,  2511,  2617,  2656,  2809,  3008,  3076,  3276,  3463
  4132,  4139,  4273,  4281,  4733,  4778,  4873,  5096,  5273,  5404,  5645,  5810,  6089,  6094,  6322,  6694
  7524, 10243, 11060
*Elset, elset=_contact_S1, internal
    80,  2398,  3282,  4145,  4676,  4741,  5584,  5727,  6055,  6969,  8016,  8095, 10384, 12160, 12630, 13164
 13322, 13412, 14600
*Elset, elset=_contact_S4, internal
  1703,  1881,  2166,  2299,  2449,  2471,  2645,  3172,  3193,  3277,  3413,  3716,  3929,  4359,  4455,  4549
  4765,  4879,  5081,  5458,  5606,  5659,  6108,  6613,  6679,  6762,  7050,  7288,  7443,  7781,  7815,  7996
  8055,  8185,  8189,  8760,  9033,  9070,  9190,  9299,  9346,  9408,  9894,  9952, 10068, 10190, 10643, 10729
 10774, 10777, 10939, 11000, 11171, 11537, 11598, 11690, 11811, 11941, 12001, 12812, 13147, 13177, 13521, 13869
 13924, 14022, 14093, 14583, 14740, 14879, 14938, 15086
*Surface, type=ELEMENT, name=contact
_contact_S3, S3
_contact_S2, S2
_contact_S4, S4
_contact_S1, S1
** Section: Section-1
*Solid Section, elset=Set-1, material=Material-1
,
*End Part
**  
**
** ASSEMBLY
**
*Assembly, name=Assembly
**  
*Instance, name=rec-1, part=block
*End Instance
**  
*End Assembly
** 
** MATERIALS
** 
*Material, name=Material-1
*Hyperelastic, neo hooke
1.,1.
** ----------------------------------------------------------------
** 
** STEP: Step-1
** 
*Step, name=Step-1, nlgeom=YES
*Static
1., 1., 1e-05, 1.
** 
** OUTPUT REQUESTS
** 
*Restart, write, frequency=0
** 
** FIELD OUTPUT: F-Output-1
** 
*Output, field, variable=PRESELECT
** 
** HISTORY OUTPUT: H-Output-1
** 
*Output, history, variable=PRESELECT
*End Step
