*Heading
** Job name: ellipseheng Model name: ellipseHeng
** Generated by: Abaqus/CAE 2021
*Preprint, echo=NO, model=NO, history=NO, contact=NO
**
** PARTS
**
*Part, name=cylinder
*Node
      1,   72.6548691,          30.,   46.9750137
      2,   71.6628723,          30.,   44.0955849
      3,   70.1294861,          30.,   41.4627342
      4,   65.9075928,          30.,   37.0858841
      5,   63.4072647,          30.,   35.3402519
      6,   57.9375267,          30.,   32.6555138
      7,   49.0830994,          30.,    30.415472
      8,   42.9999504,          30.,          30.
      9,   36.9168015,          30.,   30.4154854
     10,   28.0623798,          30.,   32.6555481
     11,   22.5926533,          30.,   35.3403015
     12,   20.0923309,          30.,   37.0859489
     13,   15.8704844,          30.,   41.4627762
     14,   14.3371067,          30.,   44.0956306
     15,   13.3451195,          30.,   46.9750633
     16,          73.,          30.,          50.
     17,          13.,          30.,          50.
     18,     13.34513,          30.,   53.0249863
     19,   14.3371286,          30.,   55.9044151
     20,   15.8705158,          30.,   58.5372658
** ... 6448 like lines cut
*Element, type=C3D8
   1,   97,    1,   16,   95,  405,  309,  324,  403
   2,   95,   16,   32,   96,  403,  324,  340,  404
   3,   75,   33,    3,   73,  383,  341,  311,  381
   4,  219,  276,   53,   74,  527,  584,  361,  382
   5,  219,   74,   94,   98,  527,  382,  402,  406
   6,   99,  131,  237,  145,  407,  439,  545,  453
   7,   79,   37,    7,   69,  387,  345,  315,  377
   8,  133,   77,   90,  109,  441,  385,  398,  417
   9,   61,   39,    9,   60,  369,  347,  317,  368
  10,   24,   59,   89,   47,  332,  367,  397,  355
  11,   62,   10,   40,   82,  370,  318,  348,  390
  12,  125,   61,   60,  102,  433,  369,  368,  410
  13,  164,  160,  125,  102,  472,  468,  433,  410
  14,  125,  160,  157,  103,  433,  468,  465,  411
  15,   42,   84,   64,   13,  350,  392,  372,  321
  16,  120,   15,   14,   65,  428,  323,  322,  373
  17,  104,  218,   65,   64,  412,  526,  373,  372
  18,   19,  105,   66,   20,  327,  413,  374,  328
  19,   85,   43,   20,   66,  393,  351,  328,  374
  20,  236,  111,  274,  143,  544,  419,  582,  451
** ... 5600 like lines cut
*Nset, nset=contact
    1,    2,    3,    4,    5,    6,    7,    8,    9,   10,   11,   12,   13,   14,   15,   16
   17,   18,   19,   20,   21,   22,   23,   24,   25,   26,   27,   28,   29,   30,   31,   32
   33,   34,   35,   36,   37,   38,   39,   40,   41,   42,   43,   44,   45,   46,   47,   48
   49,   50,   51,   52,  309,  310,  311,  312,  313,  314,  315,  316,  317,  318,  319,  320
  321,  322,  323,  324,  325,  326,  327,  328,  329,  330,  331,  332,  333,  334,  335,  336
  337,  338,  339,  340,  341,  342,  343,  344,  345,  346,  347,  348,  349,  350,  351,  352
  353,  354,  355,  356,  357,  358,  359,  360,  617,  618,  619,  620,  621,  622,  623,  624
  625,  626,  627,  628,  629,  630,  631,  632,  633,  634,  635,  636,  637,  638,  639,  640
  641,  642,  643,  644,  645,  646,  647,  648,  649,  650,  651,  652,  653,  654,  655,  656
  657,  658,  659,  660,  661,  662,  663,  664,  665,  666,  667,  668,  925,  926,  927,  928
  929,  930,  931,  932,  933,  934,  935,  936,  937,  938,  939,  940,  941,  942,  943,  944
  945,  946,  947,  948,  949,  950,  951,  952,  953,  954,  955,  956,  957,  958,  959,  960
  961,  962,  963,  964,  965,  966,  967,  968,  969,  970,  971,  972,  973,  974,  975,  976
 1233, 1234, 1235, 1236, 1237, 1238, 1239, 1240, 1241, 1242, 1243, 1244, 1245, 1246, 1247, 1248
 1249, 1250, 1251, 1252, 1253, 1254, 1255, 1256, 1257, 1258, 1259, 1260, 1261, 1262, 1263, 1264
 1265, 1266, 1267, 1268, 1269, 1270, 1271, 1272, 1273, 1274, 1275, 1276, 1277, 1278, 1279, 1280
 1281, 1282, 1283, 1284, 1541, 1542, 1543, 1544, 1545, 1546, 1547, 1548, 1549, 1550, 1551, 1552
 1553, 1554, 1555, 1556, 1557, 1558, 1559, 1560, 1561, 1562, 1563, 1564, 1565, 1566, 1567, 1568
 1569, 1570, 1571, 1572, 1573, 1574, 1575, 1576, 1577, 1578, 1579, 1580, 1581, 1582, 1583, 1584
 1585, 1586, 1587, 1588, 1589, 1590, 1591, 1592, 1849, 1850, 1851, 1852, 1853, 1854, 1855, 1856
** ... 49 like lines cut
*Elset, elset=contact
    1,    2,    3,    7,    9,   10,   11,   15,   16,   18,   19,   25,   26,   28,   29,   30
   32,   33,   34,   35,   36,   40,   41,   42,   44,   45,   46,   47,   48,   49,   50,   52
   53,   54,   56,   57,   60,   61,   63,   64,   65,   66,   67,   68,   69,   75,   78,   79
   83,   86,   93,  107,  282,  283,  284,  288,  290,  291,  292,  296,  297,  299,  300,  306
  307,  309,  310,  311,  313,  314,  315,  316,  317,  321,  322,  323,  325,  326,  327,  328
  329,  330,  331,  333,  334,  335,  337,  338,  341,  342,  344,  345,  346,  347,  348,  349
  350,  356,  359,  360,  364,  367,  374,  388,  563,  564,  565,  569,  571,  572,  573,  577
  578,  580,  581,  587,  588,  590,  591,  592,  594,  595,  596,  597,  598,  602,  603,  604
  606,  607,  608,  609,  610,  611,  612,  614,  615,  616,  618,  619,  622,  623,  625,  626
  627,  628,  629,  630,  631,  637,  640,  641,  645,  648,  655,  669,  844,  845,  846,  850
  852,  853,  854,  858,  859,  861,  862,  868,  869,  871,  872,  873,  875,  876,  877,  878
  879,  883,  884,  885,  887,  888,  889,  890,  891,  892,  893,  895,  896,  897,  899,  900
  903,  904,  906,  907,  908,  909,  910,  911,  912,  918,  921,  922,  926,  929,  936,  950
 1125, 1126, 1127, 1131, 1133, 1134, 1135, 1139, 1140, 1142, 1143, 1149, 1150, 1152, 1153, 1154
 1156, 1157, 1158, 1159, 1160, 1164, 1165, 1166, 1168, 1169, 1170, 1171, 1172, 1173, 1174, 1176
 1177, 1178, 1180, 1181, 1184, 1185, 1187, 1188, 1189, 1190, 1191, 1192, 1193, 1199, 1202, 1203
 1207, 1210, 1217, 1231, 1406, 1407, 1408, 1412, 1414, 1415, 1416, 1420, 1421, 1423, 1424, 1430
 1431, 1433, 1434, 1435, 1437, 1438, 1439, 1440, 1441, 1445, 1446, 1447, 1449, 1450, 1451, 1452
 1453, 1454, 1455, 1457, 1458, 1459, 1461, 1462, 1465, 1466, 1468, 1469, 1470, 1471, 1472, 1473
 1474, 1480, 1483, 1484, 1488, 1491, 1498, 1512, 1687, 1688, 1689, 1693, 1695, 1696, 1697, 1701
** ... 45 like lines cut
*Nset, nset=cylinder, generate
    1,  6468,     1
*Elset, elset=cylinder, generate
    1,  5620,     1
*Elset, elset=_contact_S4, internal
    1,    2,    3,    7,    9,   11,   16,   19,   25,   28,   29,   30,   33,   34,   36,   42
   44,   45,   46,   47,   50,   52,   53,   54,   56,   60,   61,   64,   65,   66,   67,   68
   69,   83,   86,   93,  282,  283,  284,  288,  290,  292,  297,  300,  306,  309,  310,  311
  314,  315,  317,  323,  325,  326,  327,  328,  331,  333,  334,  335,  337,  341,  342,  345
  346,  347,  348,  349,  350,  364,  367,  374,  563,  564,  565,  569,  571,  573,  578,  581
  587,  590,  591,  592,  595,  596,  598,  604,  606,  607,  608,  609,  612,  614,  615,  616
  618,  622,  623,  626,  627,  628,  629,  630,  631,  645,  648,  655,  844,  845,  846,  850
  852,  854,  859,  862,  868,  871,  872,  873,  876,  877,  879,  885,  887,  888,  889,  890
  893,  895,  896,  897,  899,  903,  904,  907,  908,  909,  910,  911,  912,  926,  929,  936
 1125, 1126, 1127, 1131, 1133, 1135, 1140, 1143, 1149, 1152, 1153, 1154, 1157, 1158, 1160, 1166
 1168, 1169, 1170, 1171, 1174, 1176, 1177, 1178, 1180, 1184, 1185, 1188, 1189, 1190, 1191, 1192
 1193, 1207, 1210, 1217, 1406, 1407, 1408, 1412, 1414, 1416, 1421, 1424, 1430, 1433, 1434, 1435
 1438, 1439, 1441, 1447, 1449, 1450, 1451, 1452, 1455, 1457, 1458, 1459, 1461, 1465, 1466, 1469
 1470, 1471, 1472, 1473, 1474, 1488, 1491, 1498, 1687, 1688, 1689, 1693, 1695, 1697, 1702, 1705
 1711, 1714, 1715, 1716, 1719, 1720, 1722, 1728, 1730, 1731, 1732, 1733, 1736, 1738, 1739, 1740
 1742, 1746, 1747, 1750, 1751, 1752, 1753, 1754, 1755, 1769, 1772, 1779, 1968, 1969, 1970, 1974
 1976, 1978, 1983, 1986, 1992, 1995, 1996, 1997, 2000, 2001, 2003, 2009, 2011, 2012, 2013, 2014
 2017, 2019, 2020, 2021, 2023, 2027, 2028, 2031, 2032, 2033, 2034, 2035, 2036, 2050, 2053, 2060
 2249, 2250, 2251, 2255, 2257, 2259, 2264, 2267, 2273, 2276, 2277, 2278, 2281, 2282, 2284, 2290
 2292, 2293, 2294, 2295, 2298, 2300, 2301, 2302, 2304, 2308, 2309, 2312, 2313, 2314, 2315, 2316
** ... 25 like lines cut
*Elset, elset=_contact_S6, internal
   10,   15,   18,   26,   32,   35,   40,   41,   48,   49,   57,   63,   75,   78,   79,  107
  291,  296,  299,  307,  313,  316,  321,  322,  329,  330,  338,  344,  356,  359,  360,  388
  572,  577,  580,  588,  594,  597,  602,  603,  610,  611,  619,  625,  637,  640,  641,  669
  853,  858,  861,  869,  875,  878,  883,  884,  891,  892,  900,  906,  918,  921,  922,  950
 1134, 1139, 1142, 1150, 1156, 1159, 1164, 1165, 1172, 1173, 1181, 1187, 1199, 1202, 1203, 1231
 1415, 1420, 1423, 1431, 1437, 1440, 1445, 1446, 1453, 1454, 1462, 1468, 1480, 1483, 1484, 1512
 1696, 1701, 1704, 1712, 1718, 1721, 1726, 1727, 1734, 1735, 1743, 1749, 1761, 1764, 1765, 1793
 1977, 1982, 1985, 1993, 1999, 2002, 2007, 2008, 2015, 2016, 2024, 2030, 2042, 2045, 2046, 2074
 2258, 2263, 2266, 2274, 2280, 2283, 2288, 2289, 2296, 2297, 2305, 2311, 2323, 2326, 2327, 2355
 2539, 2544, 2547, 2555, 2561, 2564, 2569, 2570, 2577, 2578, 2586, 2592, 2604, 2607, 2608, 2636
 2820, 2825, 2828, 2836, 2842, 2845, 2850, 2851, 2858, 2859, 2867, 2873, 2885, 2888, 2889, 2917
 3101, 3106, 3109, 3117, 3123, 3126, 3131, 3132, 3139, 3140, 3148, 3154, 3166, 3169, 3170, 3198
 3382, 3387, 3390, 3398, 3404, 3407, 3412, 3413, 3420, 3421, 3429, 3435, 3447, 3450, 3451, 3479
 3663, 3668, 3671, 3679, 3685, 3688, 3693, 3694, 3701, 3702, 3710, 3716, 3728, 3731, 3732, 3760
 3944, 3949, 3952, 3960, 3966, 3969, 3974, 3975, 3982, 3983, 3991, 3997, 4009, 4012, 4013, 4041
 4225, 4230, 4233, 4241, 4247, 4250, 4255, 4256, 4263, 4264, 4272, 4278, 4290, 4293, 4294, 4322
 4506, 4511, 4514, 4522, 4528, 4531, 4536, 4537, 4544, 4545, 4553, 4559, 4571, 4574, 4575, 4603
 4787, 4792, 4795, 4803, 4809, 4812, 4817, 4818, 4825, 4826, 4834, 4840, 4852, 4855, 4856, 4884
 5068, 5073, 5076, 5084, 5090, 5093, 5098, 5099, 5106, 5107, 5115, 5121, 5133, 5136, 5137, 5165
 5349, 5354, 5357, 5365, 5371, 5374, 5379, 5380, 5387, 5388, 5396, 5402, 5414, 5417, 5418, 5446
*Surface, type=ELEMENT, name=contact
_contact_S4, S4
_contact_S6, S6
** Section: Section-1
*Solid Section, elset=cylinder, material=Material-1
,
*End Part
**  
**
** ASSEMBLY
**
*Assembly, name=Assembly
**  
*Instance, name=cylinder-1, part=cylinder
*End Instance
**  
*End Assembly
** 
** MATERIALS
** 
*Material, name=Material-1
*Hyperelastic, neo hooke
 0.24, 0.4
