*Heading
** Job name: obj Model name: obj
** Generated by: Abaqus/CAE 2021
*Preprint, echo=NO, model=NO, history=NO, contact=NO
**
** PARTS
**
*Part, name=obj
*Node
      1,          45.,          30.,           0.
      2,          45.,          30.,          80.
      3,          45.,         -30.,          80.
      4,          45.,         -30.,           0.
      5,   42.0217667,          30.,  0.197596312
      6,   39.0947762,          30.,  0.782581687
      7,   36.2650948,          30.,   1.73306727
      8,   33.5700378,          30.,   3.01697731
      9,   31.0368176,          30.,   4.59680986
     10,   28.6831779,          30.,   6.43384409
     11,   26.5191116,          30.,   8.49108028
     12,   24.5488911,          30.,   10.7348633
     13,   22.7729244,          30.,   13.1354952
     14,   21.1892338,          30.,   15.6672182
     15,   19.7945213,          30.,   18.3078556
     16,   18.5849304,          30.,   21.0383263
     17,   17.5565281,          30.,    23.842123
     18,   16.7056255,          30.,   26.7048283
     19,   16.0289803,          30.,   29.6136875
     20,   15.5239038,          30.,    32.557209
** ... 9347 like lines cut
*Element, type=C3D4
    1, 2520, 2521, 2522, 2523
    2, 2520, 2524, 2525, 2526
    3, 2527, 2528, 2529, 2530
    4, 2528, 2531, 2532, 2533
    5, 2534, 1003, 2535, 2536
    6, 2527, 2537, 2538, 2528
    7, 2528, 2527, 2539, 2538
    8, 2528, 2538, 2532, 2537
    9, 2528, 2533, 2538, 2539
   10, 2540, 2541, 2542, 2543
   11, 2540, 2543, 2542, 2544
   12, 2540, 2545, 2546, 2547
   13, 2548, 2549, 2550, 2551
   14, 2540, 2552, 2532, 2553
   15, 2540, 2553, 2532, 2546
   16, 2532, 2554, 2555, 2556
   17, 2557, 2532, 2554, 2555
   18, 2556, 2532, 2558, 2555
   19, 2556, 2559, 2537, 2538
   20, 2560, 2561, 2562, 2563
** ... 48632 like lines cut
*Nset, nset=cylinder, generate
    1,  9367,     1
*Elset, elset=cylinder, generate
     1,  48652,      1
*Nset, nset=contact, generate
    1,  2519,     1
*Elset, elset=contact
    24,    35,    36,    64,    68,    71,    84,   139,   156,   159,   176,   194,   227,   235,   268,   280
   310,   338,   340,   354,   355,   359,   372,   395,   420,   435,   456,   466,   479,   501,   536,   557
   630,   632,   639,   658,   670,   726,   867,   878,   899,   917,   939,   951,   960,   985,   994,  1007
  1009,  1048,  1076,  1115,  1122,  1208,  1247,  1257,  1258,  1303,  1328,  1372,  1406,  1409,  1441,  1443
  1444,  1451,  1553,  1566,  1571,  1573,  1588,  1616,  1625,  1626,  1629,  1633,  1682,  1685,  1687,  1696
  1701,  1743,  1770,  1779,  1834,  1849,  1855,  1870,  1872,  1915,  1946,  1948,  1996,  2037,  2040,  2083
  2092,  2122,  2162,  2170,  2171,  2197,  2200,  2231,  2243,  2258,  2290,  2314,  2350,  2406,  2426,  2427
  2432,  2476,  2488,  2494,  2550,  2554,  2578,  2590,  2601,  2602,  2608,  2609,  2610,  2640,  2641,  2654
  2678,  2680,  2701,  2742,  2761,  2763,  2797,  2825,  2839,  2841,  2848,  2877,  2884,  2897,  2913,  2914
  2967,  3012,  3018,  3020,  3022,  3645,  3651,  3653,  3662,  3663,  3665,  3670,  3673,  3687,  3689,  3693
  3694,  3695,  3696,  3699,  3711,  3728,  3732,  3736,  3738,  3740,  3746,  3754,  3756,  3763,  3769,  3770
  3772,  3775,  3781,  3782,  3786,  3791,  3795,  3797,  3800,  3803,  3804,  3806,  3808,  3810,  3816,  3818
  3819,  3823,  3826,  3827,  3828,  3833,  3839,  3841,  3844,  3845,  3853,  3854,  3867,  3868,  3869,  3872
  3882,  3886,  3899,  3902,  3906,  3909,  3910,  3911,  3913,  3915,  3922,  3924,  3926,  3933,  3935,  3937
  3938,  3939,  3941,  3946,  3950,  3951,  3960,  3961,  3963,  3965,  3966,  3977,  3979,  3985,  3987,  3989
  3997,  4001,  4002,  4004,  4019,  4031,  4036,  4037,  4040,  4044,  4046,  4048,  4058,  4059,  4060,  4063
  4064,  4065,  4066,  4068,  4075,  4077,  4079,  4080,  4086,  4087,  4091,  4094,  4099,  4101,  4105,  4106
  4107,  4112,  4120,  4122,  4128,  4135,  4137,  4141,  4142,  4143,  4146,  4148,  4151,  4154,  4155,  4158
  4159,  4163,  4166,  4170,  4172,  4177,  4180,  4188,  4193,  4194,  4197,  4198,  4203,  4204,  4205,  4208
  4209,  4210,  4213,  4217,  4223,  4225,  4229,  4231,  4233,  4238,  4240,  4241,  4246,  4247,  4250,  4254
** ... 287 like lines cut
*Elset, elset=_contact_S1, internal
    35,    68,   268,   340,   372,   435,   479,   536,   632,   658,   867,  1303,  1406,  1553,  1616,  1855
  2610,  2914,  2967,  3740,  3816,  4270,  4326,  4461,  4482,  4524,  4532,  4588,  4590,  4682,  5020,  5246
  5274,  5385,  5497,  5534,  5535,  5902,  5969,  6981,  7277,  7546,  7639,  7734,  7739,  7802,  7947,  8071
  8110,  8427,  8504,  8617,  8746,  8835,  9052,  9060,  9075,  9178,  9247,  9487,  9511,  9585,  9612,  9701
  9731,  9805,  9841, 10075, 10285, 10302, 10410, 10441, 10513, 10738, 10760, 11133, 11138, 11218, 11357, 11378
 11445, 11460, 11473, 11474, 11779, 11807, 12010, 12041, 12112, 12113, 12120, 12511, 12545, 12844, 12937, 12977
 14754, 14781, 14782, 14790, 14826, 14830, 14849, 14877, 14884, 14890, 15991, 16282, 16295, 18712, 19202, 19256
 21479, 22886, 23073, 23111, 24365, 25316, 25409, 26347, 27831, 29847, 32695, 35465, 38504
*Elset, elset=_contact_S3, internal
    24,    36,    71,    84,   139,   156,   159,   176,   235,   280,   310,   338,   359,   395,   420,   456
   466,   501,   557,   630,   670,   878,   899,   917,   939,   951,   985,   994,  1007,  1048,  1076,  1115
  1122,  1208,  1257,  1258,  1328,  1372,  1406,  1409,  1443,  1444,  1451,  1566,  1571,  1573,  1588,  1616
  1625,  1626,  1629,  1633,  1682,  1685,  1696,  1701,  1743,  1770,  1779,  1834,  1849,  1870,  1872,  1915
  1946,  1948,  1996,  2037,  2040,  2083,  2092,  2122,  2162,  2170,  2171,  2197,  2231,  2243,  2258,  2290
  2314,  2350,  2406,  2426,  2427,  2432,  2476,  2488,  2550,  2554,  2578,  2590,  2601,  2602,  2608,  2609
  2640,  2641,  2654,  2678,  2680,  2701,  2742,  2761,  2763,  2797,  2839,  2841,  2848,  2877,  2884,  2897
  2913,  2967,  3012,  3018,  3020,  3022,  3645,  3651,  3653,  3662,  3663,  3665,  3670,  3673,  3689,  3693
  3694,  3695,  3696,  3699,  3728,  3732,  3736,  3738,  3740,  3746,  3754,  3756,  3763,  3769,  3770,  3772
  3775,  3781,  3782,  3786,  3791,  3795,  3797,  3800,  3803,  3804,  3806,  3808,  3810,  3818,  3819,  3823
  3826,  3827,  3828,  3833,  3839,  3841,  3844,  3845,  3853,  3854,  3867,  3868,  3869,  3872,  3882,  3886
  3899,  3902,  3906,  3909,  3910,  3911,  3913,  3915,  3924,  3926,  3933,  3935,  3937,  3938,  3939,  3941
  3946,  3950,  3951,  3960,  3961,  3963,  3965,  3966,  3977,  3979,  3985,  3987,  3989,  3997,  4001,  4002
  4004,  4019,  4031,  4036,  4037,  4040,  4044,  4046,  4048,  4058,  4059,  4060,  4063,  4064,  4065,  4066
  4068,  4075,  4077,  4079,  4080,  4086,  4087,  4091,  4094,  4099,  4101,  4105,  4106,  4107,  4112,  4120
  4122,  4128,  4135,  4137,  4141,  4142,  4143,  4146,  4148,  4151,  4154,  4158,  4159,  4163,  4166,  4170
  4172,  4177,  4180,  4188,  4193,  4194,  4197,  4198,  4203,  4204,  4205,  4208,  4209,  4210,  4213,  4217
  4223,  4225,  4229,  4231,  4233,  4238,  4240,  4241,  4247,  4250,  4254,  4262,  4264,  4270,  4271,  4274
  4277,  4279,  4282,  4284,  4285,  4287,  4290,  4291,  4292,  4294,  4295,  4296,  4303,  4309,  4317,  4320
  4322,  4323,  4324,  4325,  4330,  4333,  4343,  4344,  4346,  4351,  4367,  4369,  4388,  4395,  4401,  4402
** ... 265 like lines cut
*Elset, elset=_contact_S2, internal
    64,  1247,  1682,  1687,  1743,  1948,  2494,  2897,  3673,  3687,  3711,  4087,  4122,  4155,  4188,  4198
  4246,  4269,  4355,  4602,  4609,  4632,  4759,  4853,  5025,  5090,  5275,  5388,  5424,  5481,  5862,  5933
  6243,  6294,  6335,  6624,  6976,  6986,  7144,  7174,  7272,  7324,  7447,  7473,  7509,  7538,  7728,  7732
  7765,  7804,  7930,  8395,  8642,  8734,  8917,  9007,  9163,  9247,  9257,  9299,  9486,  9496,  9693, 10057
 10112, 10189, 10254, 10405, 10633, 10901, 10934, 11004, 11114, 11215, 11247, 11248, 11325, 11379, 11414, 11461
 11541, 11553, 11575, 11593, 11624, 11675, 11993, 11996, 12021, 12046, 12077, 12113, 12178, 12196, 12223, 12246
 12249, 12295, 12345, 12408, 12420, 12426, 12496, 12548, 12622, 12634, 12641, 12668, 13173, 13677, 13932, 14058
 14313, 14512, 14741, 14755, 14767, 14873, 15028, 15502, 15828, 15917, 16013, 16055, 16108, 16368, 16378, 16499
 16742, 16910, 17371, 17429, 17926, 18038, 28868
*Elset, elset=_contact_S4, internal
   194,   227,   354,   355,   639,   726,   960,  1009,  1441,  2200,  2476,  2554,  2680,  2825,  2839,  3695
  3922,  4344,  4351,  4355,  4373,  4584,  4635,  4860,  5027,  5035,  5052,  5071,  5111,  5212,  5270,  5363
  5598,  6033,  6102,  6513,  6921,  7027,  7133,  7279,  7312,  7338,  7516,  7541,  7581,  7634,  7734,  7820
  7899,  7955,  7967,  8281,  8376,  8423,  8445,  8554,  8647,  8687,  8856,  9052,  9070,  9195,  9240,  9285
  9331,  9378,  9394,  9447,  9625,  9805,  9842, 10020, 10071, 10308, 10359, 10420, 10437, 10548, 10690, 10791
 11143, 11257, 11499, 11546, 11605, 11617, 11651, 11694, 11739, 11744, 11750, 11754, 11798, 11816, 11818, 11832
 11949, 11958, 12057, 12062, 12194, 12239, 12255, 12278, 12304, 12323, 12326, 12333, 12489, 12643, 12656, 12738
 12754, 12811, 12901, 13441, 13529, 13730, 13765, 13952, 14002, 14037, 14283, 14520, 14717, 14756, 14840, 14886
 14925, 14934, 14936, 15236, 15301, 15312, 15374, 15567, 15639, 15844, 15967, 16162, 16285, 16521, 16729, 17626
 18237, 18256, 18369, 18627, 18695, 18833, 18952, 19996, 20088, 20225, 20232, 20495, 20845, 21057, 21321, 21384
 21441, 21545, 21743, 21895, 22034, 22350, 22605, 22788, 23382, 23920, 24168, 24174, 24490, 24750, 24753, 24828
 24835, 24865, 25101, 25111, 25113, 25138, 25140, 25304, 25469, 25665, 26049, 26162, 26269, 26425, 26466, 26541
 26556, 26671, 27094, 27698, 28220, 28316, 28426, 29071, 29258, 29565, 29645, 29697, 29761, 30271, 30450, 30783
 30811, 30820, 30829, 31638, 37497, 39067, 39368
*Surface, type=ELEMENT, name=contact
_contact_S1, S1
_contact_S3, S3
_contact_S2, S2
_contact_S4, S4
** Section: Section-1
*Solid Section, elset=cylinder, material=Material-1
,
*End Part
**  
**
** ASSEMBLY
**
*Assembly, name=Assembly
**  
*Instance, name=obj-1, part=obj
*End Instance
**  
*End Assembly
** 
** MATERIALS
** 
*Material, name=Material-1
*Hyperelastic, neo hooke
 0.24, 0.4
