*Heading
** Job name: rec Model name: Model-1
** Generated by: Abaqus/CAE 2021
*Preprint, echo=NO, model=NO, history=NO, contact=NO
**
** PARTS
**
*Part, name=rec
*Node
      1,         12.5,         -25.,         250.
      2,         12.5,          25.,         250.
      3,         12.5,          25.,           0.
      4,         12.5,         -25.,           0.
      5,          15.,          25.,         250.
      6,          15.,          25.,           0.
      7,          15.,         -25.,           0.
      8,          15.,         -25.,         250.
      9,         12.5,   -23.484848,         250.
     10,         12.5,   -21.969696,         250.
     11,         12.5,   -20.454546,         250.
     12,         12.5,   -18.939394,         250.
     13,         12.5,   -17.424242,         250.
     14,         12.5,   -15.909091,         250.
     15,         12.5,   -14.393939,         250.
     16,         12.5,   -12.878788,         250.
     17,         12.5,   -11.363636,         250.
     18,         12.5,  -9.84848499,         250.
     19,         12.5,  -8.33333302,         250.
     20,         12.5,  -6.81818199,         250.
** ... 17648 like lines cut
*Element, type=C3D4
    1, 11825, 11826,  5449, 11827
    2, 11825, 11828, 11829,  5448
    3, 11825, 11830,  5481, 11826
    4, 11825,  5481, 11830,  5480
    5, 11825, 11829, 11827,  5449
    6, 11831,  5240, 11832, 11833
    7, 11831, 11832,  5240,  5239
    8, 11831, 11832,  5239, 11834
    9, 11831, 11835, 11836,  5271
   10, 11831, 11837, 11838, 10973
   11, 11831, 11837, 11835,  5272
   12, 11839, 11840,  9962,  9961
   13, 11839, 11840, 11841,  4236
   14, 11839, 11840,  4236,  4235
   15, 11839, 11840,  9961, 11841
   16, 11839, 11842, 11843,  4268
   17, 11839, 11844, 11843,  9993
   18, 11845, 11846,  9614, 11847
   19, 11845, 11846,  3911, 11848
   20, 11845, 11849,  3912, 11850
** ... 69381 like lines cut
*Nset, nset=Set-2, generate
     1,  17668,      1
*Elset, elset=Set-2, generate
     1,  69401,      1
*Nset, nset=contact
    1,    2,    3,    4,    9,   10,   11,   12,   13,   14,   15,   16,   17,   18,   19,   20
   21,   22,   23,   24,   25,   26,   27,   28,   29,   30,   31,   32,   33,   34,   35,   36
   37,   38,   39,   40,   41,   42,   43,   44,   45,   46,   47,   48,   49,   50,   51,   52
   53,   54,   55,   56,   57,   58,   59,   60,   61,   62,   63,   64,   65,   66,   67,   68
   69,   70,   71,   72,   73,   74,   75,   76,   77,   78,   79,   80,   81,   82,   83,   84
   85,   86,   87,   88,   89,   90,   91,   92,   93,   94,   95,   96,   97,   98,   99,  100
  101,  102,  103,  104,  105,  106,  107,  108,  109,  110,  111,  112,  113,  114,  115,  116
  117,  118,  119,  120,  121,  122,  123,  124,  125,  126,  127,  128,  129,  130,  131,  132
  133,  134,  135,  136,  137,  138,  139,  140,  141,  142,  143,  144,  145,  146,  147,  148
  149,  150,  151,  152,  153,  154,  155,  156,  157,  158,  159,  160,  161,  162,  163,  164
  165,  166,  167,  168,  169,  170,  171,  172,  173,  174,  175,  176,  177,  178,  179,  180
  181,  182,  183,  184,  185,  186,  187,  188,  189,  190,  191,  192,  193,  194,  195,  196
  197,  198,  199,  200,  201,  202,  203,  204,  205,  206,  207,  208,  209,  210,  211,  212
  213,  214,  215,  216,  217,  218,  219,  220,  221,  222,  223,  224,  225,  226,  227,  228
  229,  230,  231,  232,  233,  234,  235,  236,  237,  238,  239,  240,  241,  242,  243,  244
  245,  246,  247,  248,  249,  250,  251,  252,  253,  254,  255,  256,  257,  258,  259,  260
  261,  262,  263,  264,  265,  266,  267,  268,  269,  270,  271,  272,  273,  274,  275,  276
  277,  278,  279,  280,  281,  282,  283,  284,  285,  286,  287,  288,  289,  290,  291,  292
  293,  294,  295,  296,  297,  298,  299,  300,  301,  302,  303,  304,  305,  306,  307,  308
  309,  310,  311,  312,  313,  314,  315,  316,  317,  318,  319,  320,  321,  322,  323,  324
** ... 337 like lines cut
*Elset, elset=contact
    83,   163,   391,   396,   465,   510,   529,   686,   708,   717,   752,   754,   804,   807,   879,  1014
  1015,  1060,  1140,  1268,  1343,  1377,  1513,  1608,  1616,  1666,  1704,  1728,  1734,  1983,  2113,  2273
  2287,  2333,  2348,  2623,  2628,  2651,  2683,  2711,  2717,  2779,  2791,  2872,  2914,  2934,  2966,  3002
  3007,  3048,  3250,  3271,  3290,  3447,  3495,  3519,  3548,  3559,  3654,  3707,  3891,  3905,  3916,  3996
  3997,  4025,  4037,  4118,  4191,  4197,  4198,  4234,  4251,  4265,  4277,  4295,  4368,  4376,  4384,  4388
  4396,  4422,  4685,  4730,  4874,  4906,  4916,  4923,  4940,  5000,  5011,  5041,  5066,  5104,  5132,  5139
  5146,  5152,  5206,  5244,  5265,  5272,  5317,  5351,  5372,  5400,  5419,  5420,  5445,  5477,  5553,  5556
  5563,  5596,  5648,  5656,  5667,  5690,  5709,  5712,  5723,  5753,  5778,  5792,  5799,  5811,  5815,  5831
  5852,  5853,  5941,  5983,  5995,  5998,  6004,  6023,  6051,  6065,  6115,  6159,  6233,  6340,  6418,  6419
  6420,  6455,  6475,  6617,  6640,  6642,  6746,  6901,  6929,  6971,  7002,  7035,  7074,  7107,  7149,  7302
  7548,  7668,  7710,  7719,  7796,  7862,  7942,  8080,  8225,  8241,  8286,  8329,  8338,  8343,  8364,  8463
  8563,  8598,  8808,  8818,  8901,  8920,  8970,  9002,  9036,  9081,  9086,  9314,  9533,  9563,  9692,  9694
  9889,  9890,  9893,  9962, 10047, 10169, 10292, 10433, 10603, 10616, 10619, 10732, 10861, 10927, 11028, 11051
 11095, 11096, 11098, 11111, 11121, 11163, 11429, 11497, 11658, 11772, 11817, 11858, 11878, 11881, 11891, 11945
 11994, 11995, 12057, 12072, 12117, 12145, 12151, 12152, 12172, 12184, 12216, 12250, 12252, 12260, 12297, 12304
 12306, 12316, 12321, 12323, 12326, 12333, 12370, 12375, 12376, 12378, 12379, 12384, 12385, 12398, 12416, 12419
 12430, 12436, 12454, 12458, 12463, 12475, 12477, 12489, 12500, 12503, 12508, 12517, 12518, 12521, 12536, 12537
 12538, 12542, 12545, 12548, 12559, 12583, 12585, 12588, 12589, 12593, 12596, 12601, 12610, 12617, 12641, 12648
 12650, 12660, 12663, 12679, 12682, 12685, 12686, 12688, 12708, 12709, 12711, 12713, 12717, 12719, 12729, 12738
 12748, 12764, 12766, 12778, 12804, 12806, 12817, 12818, 12821, 12860, 12868, 12873, 12875, 12879, 12895, 12897
** ... 669 like lines cut
*Elset, elset=_contact_S2, internal
   247,   718,   862,   879,  1015,  2333,  5656,  8364, 10292, 11051, 12306, 12340, 12500, 13379, 13513, 14038
 14083, 14597, 14647, 14726, 14728, 14752, 14971, 15223, 15257, 15764, 17831, 18007, 18712, 18866, 18870, 19140
 19377, 19557, 19634, 19645, 19649, 20080, 20175, 20187, 20236, 20474, 20484, 20619, 20799, 21332, 21333, 21335
 21338, 22294, 22777, 22786, 23031, 23485, 24756, 25325, 25781, 25872, 27171, 27897, 28061, 28182, 28184, 28281
 28368, 28588, 28727, 28862, 28883, 29768, 30210, 30373, 30392, 30756, 30862, 30933, 31639, 32382, 32426, 33654
 34140, 34672, 35135, 35722, 35871, 38175, 39769, 40050, 40087, 40275, 41075, 41237, 41498, 41940, 42063, 42167
 42731, 42995, 43564, 43851, 44036, 44416, 45306, 45584, 45902, 46325, 47607, 47730, 47936, 47965, 48087, 48114
 48115, 48179, 48211, 48219, 48221, 48224, 48235, 48262, 48347, 48539, 48567, 48575, 48660, 48710, 48734, 48800
 48806, 48849, 48850, 48884, 49043, 49075, 49084, 49163, 49211, 49214, 49269, 49294, 49308, 49368, 49382, 49478
 49495, 49511, 49523, 49648, 49664, 49764, 49769, 49901, 49974, 49987, 50009, 50018, 50032, 50097, 50126, 50291
 50369, 50484, 50578, 50753, 50983, 50985, 51018, 51050, 51064, 51075, 51076, 51141, 51179, 51463, 51610, 51655
 51887, 51897, 52010, 52145, 52358, 52519, 52757, 53332, 53493, 53587, 54295, 54437, 54476, 54586, 54793, 54897
 54948, 54988, 55304, 55748, 55897, 56740, 56874, 56919, 57296, 57387, 57691, 58237, 58315, 58496, 58576, 58675
 58770, 58819, 59831, 60648, 60665, 60753, 60865, 61153, 61165, 61373, 61405, 61453, 61809, 62063, 62425, 62526
 62739, 64347, 64559, 65513, 65603, 65961, 66042, 66227, 66386, 67604, 68077, 68220, 68245, 68584
*Elset, elset=_contact_S3, internal
    83,   396,   465,   529,   686,   752,   754,   786,   804,  1060,  1268,  1377,  1496,  1513,  1560,  1567
  1594,  1608,  1616,  1704,  1718,  1722,  1728,  1734,  1797,  1829,  1833,  1839,  1860,  1880,  1903,  1919
  1925,  1933,  1974,  1983,  2006,  2010,  2051,  2081,  2102,  2113,  2138,  2164,  2256,  2267,  2287,  2301
  2321,  2331,  2342,  2348,  2354,  2359,  2373,  2430,  2436,  2479,  2509,  2514,  2535,  2626,  2628,  2649
  2651,  2655,  2670,  2683,  2685,  2711,  2717,  2726,  2731,  2767,  2779,  2791,  2852,  2853,  2858,  2872
  2890,  2893,  2914,  2920,  2932,  2954,  2961,  2966,  2974,  2992,  2999,  3002,  3021,  3048,  3071,  3087
  3103,  3125,  3164,  3171,  3175,  3182,  3193,  3207,  3224,  3243,  3250,  3271,  3274,  3283,  3290,  3326
  3332,  3355,  3402,  3418,  3436,  3447,  3463,  3469,  3470,  3476,  3495,  3515,  3519,  3530,  3548,  3551
  3560,  3566,  3583,  3620,  3654,  3691,  3694,  3707,  3759,  3763,  3768,  3772,  3776,  3778,  3783,  3786
  3789,  3800,  3839,  3849,  3889,  3891,  3897,  3898,  3905,  3916,  3925,  3930,  3941,  3992,  3996,  3997
  4025,  4037,  4038,  4052,  4057,  4077,  4107,  4118,  4119,  4132,  4138,  4154,  4164,  4181,  4191,  4197
  4198,  4234,  4236,  4251,  4265,  4272,  4277,  4295,  4303,  4314,  4321,  4356,  4358,  4368,  4373,  4376
  4384,  4388,  4396,  4420,  4422,  4457,  4508,  4528,  4539,  4549,  4560,  4576,  4582,  4589,  4607,  4633
  4652,  4659,  4666,  4677,  4678,  4685,  4692,  4713,  4730,  4731,  4736,  4740,  4760,  4778,  4780,  4793
  4817,  4824,  4874,  4906,  4916,  4923,  4940,  5000,  5011,  5014,  5041,  5066,  5104,  5124,  5132,  5139
  5146,  5152,  5206,  5207,  5238,  5240,  5244,  5265,  5272,  5289,  5303,  5317,  5351,  5372,  5373,  5400
  5410,  5419,  5420,  5421,  5423,  5445,  5477,  5553,  5556,  5563,  5580,  5596,  5627,  5648,  5650,  5667
  5690,  5709,  5712,  5723,  5753,  5778,  5792,  5799,  5811,  5815,  5825,  5831,  5833,  5851,  5852,  5853
  5855,  5913,  5915,  5941,  5983,  5991,  5995,  5998,  6004,  6018,  6020,  6023,  6051,  6053,  6065,  6115
  6159,  6233,  6340,  6366,  6419,  6420,  6421,  6455,  6475,  6596,  6603,  6617,  6640,  6642,  6746,  6901
** ... 734 like lines cut
*Elset, elset=_contact_S1, internal
   163,   391,   510,   708,   717,  1014,  1140,  1343,  3007,  3559,  6418,  8563, 13002, 13969, 14062, 14576
 15058, 15244, 15270, 16250, 16434, 16464, 16664, 20939, 21370, 23527, 24901, 31194, 32521, 32982, 34141, 37133
 37843, 38995, 39132, 39654, 43252, 43441, 43588, 46496, 47003, 47541, 47667, 48562, 48730, 48766, 48908, 49005
 49108, 49120, 49266, 49281, 49306, 49316, 49389, 49483, 49681, 49706, 50143, 50602, 50741, 51023, 51068, 51160
 51193, 51725, 51891, 51979, 52184, 52359, 52666, 52880, 53572, 54182, 54430, 54525, 54761, 55446, 57155, 57492
 57838, 57966, 57987, 58273, 58810, 58896, 60199, 61280, 62249, 62603, 63299, 65998, 66309, 66533, 66560, 66843
 67272, 69337
*Elset, elset=_contact_S4, internal
   807,  1666,  2273,  2417,  2623,  2934,  8844, 13454, 13827, 13901, 14519, 14540, 14583, 14736, 15058, 16224
 16546, 16784, 16996, 17455, 17483, 17580, 17965, 19085, 19689, 20706, 21340, 21508, 21871, 21883, 23188, 23583
 23833, 24034, 24400, 24606, 24755, 27534, 27719, 28139, 28600, 28714, 28719, 29893, 30384, 30385, 31401, 31486
 31717, 33231, 33391, 34172, 34497, 34974, 35112, 35977, 37827, 37836, 39601, 39800, 40803, 41309, 41483, 41494
 41694, 42652, 42775, 43662, 43801, 43806, 43968, 43989, 45132, 45285, 45408, 45902, 46476, 47394, 47603, 47925
 47940, 47992, 48059, 48083, 48092, 48167, 48233, 48349, 48350, 48352, 48360, 48439, 48440, 48493, 48518, 48546
 48547, 48587, 48614, 48669, 48679, 48811, 48817, 48838, 48862, 48913, 48914, 48961, 48995, 49025, 49085, 49117
 49170, 49243, 49291, 49299, 49327, 49345, 49384, 49528, 49653, 49704, 49729, 49789, 49885, 49937, 50100, 50119
 50213, 50227, 50296, 50453, 50562, 50566, 50574, 50664, 50696, 50721, 50809, 50867, 50931, 50984, 51014, 51027
 51044, 51166, 51188, 51205, 51217, 51254, 51312, 51389, 51557, 51670, 51680, 51797, 51864, 51975, 52006, 52109
 52111, 52213, 52269, 52368, 52482, 52641, 52711, 52854, 53058, 53231, 53285, 53541, 53703, 54006, 54126, 54400
 54720, 54771, 54931, 55533, 55800, 55815, 55816, 56214, 56480, 56513, 56762, 57701, 57786, 57970, 58408, 58631
 58980, 59221, 59295, 59337, 59537, 60270, 60343, 60795, 60812, 60975, 61004, 61139, 61365, 61535, 61685, 61903
 62057, 62437, 62629, 63108, 63157, 63609, 63960, 64433, 64455, 64611, 64765, 65696, 66896, 67371, 67573, 67585
 68478, 68957, 69155, 69158
*Surface, type=ELEMENT, name=contact
_contact_S2, S2
_contact_S3, S3
_contact_S4, S4
_contact_S1, S1
** Section: Section-1
*Solid Section, elset=Set-2, material=Material-1
,
*End Part
**  
**
** ASSEMBLY
**
*Assembly, name=Assembly
**  
*Instance, name=Part-1-1, part=rec
*End Instance
**  
*End Assembly
** 
** MATERIALS
** 
*Material, name=Material-1
*Density
1.,
*Hyperelastic, neo hooke
1.,1.
