*Heading
** Job name: cylinder Model name: Model-1
** Generated by: Abaqus/CAE 2021
*Preprint, echo=NO, model=NO, history=NO, contact=NO
**
** PARTS
**
*Part, name=cylinder
*Node
      1,   47.4712677,          30.,   69.6649246
      2,   51.8426552,          30.,   68.6671829
      3,   56.0165138,          30.,    67.029068
      4,    59.899601,          30.,   64.7871628
      5,   63.4051819,          30.,   61.9915543
      6,   66.4549408,          30.,   58.7046928
      7,   68.9807587,          30.,          55.
      8,   70.9262161,          30.,   50.9602318
      9,   72.2478409,          30.,   46.6756287
     10,   72.9161148,          30.,   42.2419014
     11,   72.9161148,          30.,   37.7580986
     12,   72.2478409,          30.,   33.3243713
     13,   70.9262161,          30.,   29.0397701
     14,   68.9807587,          30.,          25.
     15,   66.4549408,          30.,   21.2953053
     16,   63.4051819,          30.,   18.0084438
     17,    59.899601,          30.,   15.2128372
     18,   56.0165138,          30.,   12.9709339
     19,   51.8426552,          30.,   11.3328161
     20,   47.4712677,          30.,   10.3350754
** ... 66728 like lines cut
*Element, type=C3D8
    1,   472,   338,    19,   538,  2100,  1966,  1647,  2166
    2,    18,   491,   421,   336,  1646,  2119,  2049,  1964
    3,   424,  1373,   567,   452,  2052,  3001,  2195,  2080
    4,   455,    17,   333,   450,  2083,  1645,  1961,  2078
    5,   450,   333,   332,   464,  2078,  1961,  1960,  2092
    6,   477,   331,   330,   459,  2105,  1959,  1958,  2087
    7,   462,    15,   329,   471,  2090,  1643,  1957,  2099
    8,    14,   447,   445,   328,  1642,  2075,  2073,  1956
    9,   474,   327,   326,   385,  2102,  1955,  1954,  2013
   10,   547,  1372,   758,   633,  2175,  3000,  2386,  2261
   11,   622,   207,   497,   672,  2250,  1835,  2125,  2300
   12,   190,   552,   646,   581,  1818,  2180,  2274,  2209
   13,    44,   659,   807,   555,  1672,  2287,  2435,  2183
   14,   653,   519,   138,  1368,  2281,  2147,  1766,  2996
   15,   496,   102,   578,   621,  2124,  1730,  2206,  2249
   16,  1377,   557,   137,   548,  3005,  2185,  1765,  2176
   17,   664,   592,  1404,  1420,  2292,  2220,  3032,  3048
   18,   606,   600,  1467,   736,  2234,  2228,  3095,  2364
   19,   968,   817,    88,   823,  2596,  2445,  1716,  2451
   20,   924,   911,   948,   133,  2552,  2539,  2576,  1761
** ... 62540 like lines cut
*Nset, nset=contact
     1,     2,     3,     4,     5,     6,     7,     8,     9,    10,    11,    12,    13,    14,    15,    16
    17,    18,    19,    20,    21,    22,    23,    24,    25,    26,    27,    28,    29,    30,    31,    32
    33,    34,    35,    36,    37,    38,    39,    40,    41,    42,    43,    44,    45,    46,    47,    48
    49,    50,    51,    52,    53,    54,    55,    56,    57,    58,    59,    60,    61,    62,    63,    64
    65,    66,    67,    68,    69,    70,    71,    72,    73,    74,    75,    76,    77,    78,    79,    80
    81,    82,    83,    84,    85,    86,    87,    88,    89,    90,    91,    92,    93,    94,    95,    96
    97,    98,    99,   100,   101,   102,   103,   104,   105,   106,   107,   108,   109,   110,   111,   112
   113,   114,   115,   116,   117,   118,   119,   120,   121,   122,   123,   124,   125,   126,   127,   128
   129,   130,   131,   132,   133,   134,   135,   136,   137,   138,   139,   140,   141,   142,   143,   144
   145,   146,   147,   148,   149,   150,   151,   152,   153,   154,   155,   156,   157,   158,   159,   160
   161,   162,   163,   164,   165,   166,   167,   168,   169,   170,   171,   172,   173,   174,   175,   176
   177,   178,   179,   180,   181,   182,   183,   184,   185,   186,   187,   188,   189,   190,   191,   192
   193,   194,   195,   196,   197,   198,   199,   200,   201,   202,   203,   204,   205,   206,   207,   208
   209,   210,   211,   212,   213,   214,   215,   216,   217,   218,   219,   220,   221,   222,   223,   224
   225,   226,   227,   228,   229,   230,   231,   232,   233,   234,   235,   236,   237,   238,   239,   240
   241,   242,   243,   244,   245,   246,   247,   248,   249,   250,   251,   252,   253,   254,   255,   256
   257,   258,   259,   260,   261,   262,   263,   264,   265,   266,   267,   268,   269,   270,   271,   272
   273,   274,   275,   276,   277,   278,   279,   280,   281,   282,   283,   284,   285,   286,   287,   288
   289,   290,   291,   292,   293,   294,   295,   296,   297,   298,   299,   300,   301,   302,   303,   304
   305,   306,   307,   308,   309,   310,   311,   312,   313,   314,   315,   316,   317,   318,   319,   320
** ... 491 like lines cut
*Elset, elset=contact
     1,     2,     3,     4,     5,     6,     7,     8,     9,    10,    11,    12,    13,    14,    15,    16
    17,    18,    19,    20,    21,    22,    23,    24,    25,    26,    27,    28,    29,    30,    31,    32
    33,    34,    35,    36,    37,    38,    39,    40,    41,    42,    43,    44,    45,    46,    47,    48
    49,    50,    51,    52,    53,    54,    55,    56,    57,    58,    59,    60,    61,    62,    63,    64
    65,    66,    67,    68,    69,    70,    71,    72,    73,    74,    75,    76,    77,    78,    79,    80
    81,    82,    83,    84,    85,    86,    87,    88,    89,    90,    91,    92,    93,    94,    95,    96
    97,    98,    99,   100,   101,   102,   103,   104,   105,   106,   107,   108,   109,   110,   111,   112
   113,   114,   115,   116,   117,   118,   119,   120,   121,   122,   123,   124,   125,   126,   127,   128
   129,   130,   131,   132,   133,   134,   135,   136,   137,   138,   139,   140,   141,   142,   143,   144
   145,   146,   147,   148,   149,   150,   151,   152,   153,   154,   155,   156,   157,   158,   159,   160
   161,   162,   163,   164,   165,   166,   167,   168,   169,   170,   171,   172,   173,   174,   175,   176
   177,   178,   179,   180,   181,   182,   183,   184,   185,   186,   187,   188,   189,   190,   191,   192
   193,   194,   195,   196,   197,   198,   199,   200,   201,   202,   203,   204,   205,   206,   207,   208
   209,   210,   211,   212,   213,   214,   215,   216,   217,   218,   219,   220,   221,   222,   223,   224
   225,   226,   227,   228,   229,   230,   231,   232,   233,   234,   235,   236,   237,   238,   239,   240
   241,   242,   243,   244,   245,   246,   247,   248,   249,   250,   251,   252,   253,   254,   255,   256
   257,   258,   259,   260,   261,   262,   263,   264,   265,   266,   267,   268,   269,   270,   271,   272
   273,   274,   275,   276,   277,   278,   279,   280,   281,   282,   283,   284,   285,   286,   287,   288
   289,   290,   291,   292,   293,   294,   295,   296,   297,   298,   299,   300,   301,   302,   303,   304
   305,   306,   307,   308,   309,   310,   311,   312,   313,   314,   315,   316,   317,   318,   319,   320
** ... 475 like lines cut
*Nset, nset=cylinder, generate
     1,  66748,      1
*Elset, elset=cylinder, generate
     1,  62560,      1
*Elset, elset=_contact_S4, internal
     1,     4,     5,     6,     7,     9,    32,    33,    59,    60,    61,    62,    67,    69,    74,    83
    99,   131,   132,   139,   144,   149,   155,   157,   174,   185,   242,   251,   440,   510,   512,   514
   516,   519,   522,   524,   525,   527,   531,   536,   546,   551,   553,   558,   561,   562,   563,   567
   568,   572,   573,   574,   575,   579,   581,   591,   592,   594,   604,   606,   612,   614,   615,   616
   618,   621,   623,   624,   628,   634,   636,   639,   642,  1565,  1568,  1569,  1570,  1571,  1573,  1596
  1597,  1623,  1624,  1625,  1626,  1631,  1633,  1638,  1647,  1663,  1695,  1696,  1703,  1708,  1713,  1719
  1721,  1738,  1749,  1806,  1815,  2004,  2074,  2076,  2078,  2080,  2083,  2086,  2088,  2089,  2091,  2095
  2100,  2110,  2115,  2117,  2122,  2125,  2126,  2127,  2131,  2132,  2136,  2137,  2138,  2139,  2143,  2145
  2155,  2156,  2158,  2168,  2170,  2176,  2178,  2179,  2180,  2182,  2185,  2187,  2188,  2192,  2198,  2200
  2203,  2206,  3129,  3132,  3133,  3134,  3135,  3137,  3160,  3161,  3187,  3188,  3189,  3190,  3195,  3197
  3202,  3211,  3227,  3259,  3260,  3267,  3272,  3277,  3283,  3285,  3302,  3313,  3370,  3379,  3568,  3638
  3640,  3642,  3644,  3647,  3650,  3652,  3653,  3655,  3659,  3664,  3674,  3679,  3681,  3686,  3689,  3690
  3691,  3695,  3696,  3700,  3701,  3702,  3703,  3707,  3709,  3719,  3720,  3722,  3732,  3734,  3740,  3742
  3743,  3744,  3746,  3749,  3751,  3752,  3756,  3762,  3764,  3767,  3770,  4693,  4696,  4697,  4698,  4699
  4701,  4724,  4725,  4751,  4752,  4753,  4754,  4759,  4761,  4766,  4775,  4791,  4823,  4824,  4831,  4836
  4841,  4847,  4849,  4866,  4877,  4934,  4943,  5132,  5202,  5204,  5206,  5208,  5211,  5214,  5216,  5217
  5219,  5223,  5228,  5238,  5243,  5245,  5250,  5253,  5254,  5255,  5259,  5260,  5264,  5265,  5266,  5267
  5271,  5273,  5283,  5284,  5286,  5296,  5298,  5304,  5306,  5307,  5308,  5310,  5313,  5315,  5316,  5320
  5326,  5328,  5331,  5334,  6257,  6260,  6261,  6262,  6263,  6265,  6288,  6289,  6315,  6316,  6317,  6318
  6323,  6325,  6330,  6339,  6355,  6387,  6388,  6395,  6400,  6405,  6411,  6413,  6430,  6441,  6498,  6507
** ... 163 like lines cut
*Elset, elset=_contact_S6, internal
     2,     8,    34,    42,    44,    49,    50,    57,    64,    70,    73,    84,   115,   129,   130,   138
   148,   161,   168,   202,   207,   219,   249,   488,   493,   511,   513,   517,   521,   523,   526,   528
   530,   533,   535,   537,   538,   540,   541,   543,   544,   545,   549,   550,   555,   557,   560,   565
   566,   569,  1566,  1572,  1598,  1606,  1608,  1613,  1614,  1621,  1628,  1634,  1637,  1648,  1679,  1693
  1694,  1702,  1712,  1725,  1732,  1766,  1771,  1783,  1813,  2052,  2057,  2075,  2077,  2081,  2085,  2087
  2090,  2092,  2094,  2097,  2099,  2101,  2102,  2104,  2105,  2107,  2108,  2109,  2113,  2114,  2119,  2121
  2124,  2129,  2130,  2133,  3130,  3136,  3162,  3170,  3172,  3177,  3178,  3185,  3192,  3198,  3201,  3212
  3243,  3257,  3258,  3266,  3276,  3289,  3296,  3330,  3335,  3347,  3377,  3616,  3621,  3639,  3641,  3645
  3649,  3651,  3654,  3656,  3658,  3661,  3663,  3665,  3666,  3668,  3669,  3671,  3672,  3673,  3677,  3678
  3683,  3685,  3688,  3693,  3694,  3697,  4694,  4700,  4726,  4734,  4736,  4741,  4742,  4749,  4756,  4762
  4765,  4776,  4807,  4821,  4822,  4830,  4840,  4853,  4860,  4894,  4899,  4911,  4941,  5180,  5185,  5203
  5205,  5209,  5213,  5215,  5218,  5220,  5222,  5225,  5227,  5229,  5230,  5232,  5233,  5235,  5236,  5237
  5241,  5242,  5247,  5249,  5252,  5257,  5258,  5261,  6258,  6264,  6290,  6298,  6300,  6305,  6306,  6313
  6320,  6326,  6329,  6340,  6371,  6385,  6386,  6394,  6404,  6417,  6424,  6458,  6463,  6475,  6505,  6744
  6749,  6767,  6769,  6773,  6777,  6779,  6782,  6784,  6786,  6789,  6791,  6793,  6794,  6796,  6797,  6799
  6800,  6801,  6805,  6806,  6811,  6813,  6816,  6821,  6822,  6825,  7822,  7828,  7854,  7862,  7864,  7869
  7870,  7877,  7884,  7890,  7893,  7904,  7935,  7949,  7950,  7958,  7968,  7981,  7988,  8022,  8027,  8039
  8069,  8308,  8313,  8331,  8333,  8337,  8341,  8343,  8346,  8348,  8350,  8353,  8355,  8357,  8358,  8360
  8361,  8363,  8364,  8365,  8369,  8370,  8375,  8377,  8380,  8385,  8386,  8389,  9386,  9392,  9418,  9426
  9428,  9433,  9434,  9441,  9448,  9454,  9457,  9468,  9499,  9513,  9514,  9522,  9532,  9545,  9552,  9586
** ... 105 like lines cut
*Elset, elset=_contact_S5, internal
   250,   564,  1814,  2128,  3378,  3692,  4942,  5256,  6506,  6820,  8070,  8384,  9634,  9948, 11198, 11512
 12762, 13076, 14326, 14640, 15890, 16204, 17454, 17768, 19018, 19332, 20582, 20896, 22146, 22460, 23710, 24024
 25274, 25588, 26838, 27152, 28402, 28716, 29966, 30280, 31530, 31844, 33094, 33408, 34658, 34972, 36222, 36536
 37786, 38100, 39350, 39664, 40914, 41228, 42478, 42792, 44042, 44356, 45606, 45920, 47170, 47484, 48734, 49048
 50298, 50612, 51862, 52176, 53426, 53740, 54990, 55304, 56554, 56868, 58118, 58432, 59682, 59996, 61246, 61560
*Elset, elset=_contact_S3, internal, generate
   552,  61548,   1564
*Elset, elset=_contact_S2, internal, generate
 60997,  62560,      1
*Elset, elset=_contact_S1, internal, generate
    1,  1564,     1
*Surface, type=ELEMENT, name=contact
_contact_S4, S4
_contact_S6, S6
_contact_S2, S2
_contact_S5, S5
_contact_S3, S3
_contact_S1, S1
** Section: Section-1
*Solid Section, elset=cylinder, material=Material-1
,
*End Part
**  
**
** ASSEMBLY
**
*Assembly, name=Assembly
**  
*Instance, name=cylinder-1, part=cylinder
*End Instance
**  
*End Assembly
** 
** MATERIALS
** 
*Material, name=Material-1
*Hyperelastic, neo hooke
 0.24, 0.4
