*Heading
** Job name: cylinder Model name: Model-1
** Generated by: Abaqus/CAE 2021
*Preprint, echo=NO, model=NO, history=NO, contact=NO
**
** PARTS
**
*Part, name=cylinder
*Node
      1,   37.0259705,          30.,   69.5905991
      2,   42.7060394,          30.,   67.4869308
      3,   46.0274506,          30.,   65.1751633
      4,   49.9728851,          30.,   60.5792809
      5,    51.755043,          30.,    56.946106
      6,   52.7693672,          30.,   53.0285568
      7,   52.7693672,          30.,   46.9714432
      8,    51.755043,          30.,    43.053894
      9,   49.9728851,          30.,   39.4207191
     10,   46.0274506,          30.,   34.8248367
     11,   42.7060394,          30.,   32.5130692
     12,   37.0259705,          30.,   30.4094009
     13,          33.,          30.,          70.
     14,          33.,          30.,          30.
     15,   28.9740295,          30.,   30.4094009
     16,   23.2939606,          30.,   32.5130692
     17,   19.9725494,          30.,   34.8248367
     18,   16.0271149,          30.,   39.4207191
     19,    14.244957,          30.,    43.053894
     20,   13.2306337,          30.,   46.9714432
** ... 13961 like lines cut
*Element, type=C3D8
    1,    90,   385,    27,    13,   541,   836,   478,   464
    2,    88,    89,    26,    61,   539,   540,   477,   512
    3,   117,   123,   149,   140,   568,   574,   600,   591
    4,   117,    63,    30,     2,   568,   514,   481,   453
    5,     4,    32,   124,    68,   455,   483,   575,   519
    6,    99,    69,     5,    33,   550,   520,   456,   484
    7,   137,   132,   102,    70,   588,   583,   553,   521
    8,     7,    36,    71,    72,   458,   487,   522,   523
    9,   383,   281,   269,   309,   834,   732,   720,   760
   10,    40,    39,   120,    73,   491,   490,   571,   524
   11,    73,    74,    10,    40,   524,   525,   461,   491
   12,    77,    76,   143,    93,   528,   527,   594,   544
   13,    44,    12,    77,    65,   495,   463,   528,   516
   14,   121,    78,    47,    46,   572,   529,   498,   497
   15,    78,    79,    16,    47,   529,   530,   467,   498
   16,    82,    81,   139,    94,   533,   532,   590,   545
   17,    51,    18,    82,    66,   502,   469,   533,   517
   18,   156,   139,    81,   105,   607,   590,   532,   556
   19,    83,   111,    53,    20,   534,   562,   504,   471
   20,    84,   111,   134,   196,   535,   562,   585,   647
** ... 12550 like lines cut
*Nset, nset=cylinder, generate
     1,  13981,      1
*Elset, elset=cylinder, generate
     1,  12570,      1
*Nset, nset=contact
     1,     2,     3,     4,     5,     6,     7,     8,     9,    10,    11,    12,    13,    14,    15,    16
    17,    18,    19,    20,    21,    22,    23,    24,    25,    26,    27,    28,    29,    30,    31,    32
    33,    34,    35,    36,    37,    38,    39,    40,    41,    42,    43,    44,    45,    46,    47,    48
    49,    50,    51,    52,    53,    54,    55,    56,    57,    58,    59,    60,    61,    62,   452,   453
   454,   455,   456,   457,   458,   459,   460,   461,   462,   463,   464,   465,   466,   467,   468,   469
   470,   471,   472,   473,   474,   475,   476,   477,   478,   479,   480,   481,   482,   483,   484,   485
   486,   487,   488,   489,   490,   491,   492,   493,   494,   495,   496,   497,   498,   499,   500,   501
   502,   503,   504,   505,   506,   507,   508,   509,   510,   511,   512,   513,   903,   904,   905,   906
   907,   908,   909,   910,   911,   912,   913,   914,   915,   916,   917,   918,   919,   920,   921,   922
   923,   924,   925,   926,   927,   928,   929,   930,   931,   932,   933,   934,   935,   936,   937,   938
   939,   940,   941,   942,   943,   944,   945,   946,   947,   948,   949,   950,   951,   952,   953,   954
   955,   956,   957,   958,   959,   960,   961,   962,   963,   964,  1354,  1355,  1356,  1357,  1358,  1359
  1360,  1361,  1362,  1363,  1364,  1365,  1366,  1367,  1368,  1369,  1370,  1371,  1372,  1373,  1374,  1375
  1376,  1377,  1378,  1379,  1380,  1381,  1382,  1383,  1384,  1385,  1386,  1387,  1388,  1389,  1390,  1391
  1392,  1393,  1394,  1395,  1396,  1397,  1398,  1399,  1400,  1401,  1402,  1403,  1404,  1405,  1406,  1407
  1408,  1409,  1410,  1411,  1412,  1413,  1414,  1415,  1805,  1806,  1807,  1808,  1809,  1810,  1811,  1812
  1813,  1814,  1815,  1816,  1817,  1818,  1819,  1820,  1821,  1822,  1823,  1824,  1825,  1826,  1827,  1828
  1829,  1830,  1831,  1832,  1833,  1834,  1835,  1836,  1837,  1838,  1839,  1840,  1841,  1842,  1843,  1844
  1845,  1846,  1847,  1848,  1849,  1850,  1851,  1852,  1853,  1854,  1855,  1856,  1857,  1858,  1859,  1860
  1861,  1862,  1863,  1864,  1865,  1866,  2256,  2257,  2258,  2259,  2260,  2261,  2262,  2263,  2264,  2265
** ... 101 like lines cut
*Elset, elset=contact
     1,     2,     4,     5,     6,     8,    10,    11,    13,    14,    15,    17,    19,    22,    24,    25
    26,    27,    28,    31,    32,    33,    34,    36,    37,    38,    40,    41,    43,    46,    48,    50
    51,    52,    53,    54,    55,    56,    57,    59,    60,    61,    63,    66,    69,    70,    73,    75
    77,    81,    83,    85,    87,    89,    93,   104,   106,   108,   111,   116,   120,   163,   420,   421
   423,   424,   425,   427,   429,   430,   432,   433,   434,   436,   438,   441,   443,   444,   445,   446
   447,   450,   451,   452,   453,   455,   456,   457,   459,   460,   462,   465,   467,   469,   470,   471
   472,   473,   474,   475,   476,   478,   479,   480,   482,   485,   488,   489,   492,   494,   496,   500
   502,   504,   506,   508,   512,   523,   525,   527,   530,   535,   539,   582,   839,   840,   842,   843
   844,   846,   848,   849,   851,   852,   853,   855,   857,   860,   862,   863,   864,   865,   866,   869
   870,   871,   872,   874,   875,   876,   878,   879,   881,   884,   886,   888,   889,   890,   891,   892
   893,   894,   895,   897,   898,   899,   901,   904,   907,   908,   911,   913,   915,   919,   921,   923
   925,   927,   931,   942,   944,   946,   949,   954,   958,  1001,  1258,  1259,  1261,  1262,  1263,  1265
  1267,  1268,  1270,  1271,  1272,  1274,  1276,  1279,  1281,  1282,  1283,  1284,  1285,  1288,  1289,  1290
  1291,  1293,  1294,  1295,  1297,  1298,  1300,  1303,  1305,  1307,  1308,  1309,  1310,  1311,  1312,  1313
  1314,  1316,  1317,  1318,  1320,  1323,  1326,  1327,  1330,  1332,  1334,  1338,  1340,  1342,  1344,  1346
  1350,  1361,  1363,  1365,  1368,  1373,  1377,  1420,  1677,  1678,  1680,  1681,  1682,  1684,  1686,  1687
  1689,  1690,  1691,  1693,  1695,  1698,  1700,  1701,  1702,  1703,  1704,  1707,  1708,  1709,  1710,  1712
  1713,  1714,  1716,  1717,  1719,  1722,  1724,  1726,  1727,  1728,  1729,  1730,  1731,  1732,  1733,  1735
  1736,  1737,  1739,  1742,  1745,  1746,  1749,  1751,  1753,  1757,  1759,  1761,  1763,  1765,  1769,  1780
  1782,  1784,  1787,  1792,  1796,  1839,  2096,  2097,  2099,  2100,  2101,  2103,  2105,  2106,  2108,  2109
** ... 97 like lines cut
*Elset, elset=_contact_S5, internal
     1,     2,     4,     6,    11,    14,    15,    19,    26,    27,    28,    33,    37,    40,    41,    48
    51,    52,    53,    54,    55,    57,    59,    60,    61,    63,    66,    69,    70,    73,    75,    77
    81,    83,    85,    87,    89,   106,   108,   116,   120,   420,   421,   423,   425,   430,   433,   434
   438,   445,   446,   447,   452,   456,   459,   460,   467,   470,   471,   472,   473,   474,   476,   478
   479,   480,   482,   485,   488,   489,   492,   494,   496,   500,   502,   504,   506,   508,   525,   527
   535,   539,   839,   840,   842,   844,   849,   852,   853,   857,   864,   865,   866,   871,   875,   878
   879,   886,   889,   890,   891,   892,   893,   895,   897,   898,   899,   901,   904,   907,   908,   911
   913,   915,   919,   921,   923,   925,   927,   944,   946,   954,   958,  1258,  1259,  1261,  1263,  1268
  1271,  1272,  1276,  1283,  1284,  1285,  1290,  1294,  1297,  1298,  1305,  1308,  1309,  1310,  1311,  1312
  1314,  1316,  1317,  1318,  1320,  1323,  1326,  1327,  1330,  1332,  1334,  1338,  1340,  1342,  1344,  1346
  1363,  1365,  1373,  1377,  1677,  1678,  1680,  1682,  1687,  1690,  1691,  1695,  1702,  1703,  1704,  1709
  1713,  1716,  1717,  1724,  1727,  1728,  1729,  1730,  1731,  1733,  1735,  1736,  1737,  1739,  1742,  1745
  1746,  1749,  1751,  1753,  1757,  1759,  1761,  1763,  1765,  1782,  1784,  1792,  1796,  2096,  2097,  2099
  2101,  2106,  2109,  2110,  2114,  2121,  2122,  2123,  2128,  2132,  2135,  2136,  2143,  2146,  2147,  2148
  2149,  2150,  2152,  2154,  2155,  2156,  2158,  2161,  2164,  2165,  2168,  2170,  2172,  2176,  2178,  2180
  2182,  2184,  2201,  2203,  2211,  2215,  2515,  2516,  2518,  2520,  2525,  2528,  2529,  2533,  2540,  2541
  2542,  2547,  2551,  2554,  2555,  2562,  2565,  2566,  2567,  2568,  2569,  2571,  2573,  2574,  2575,  2577
  2580,  2583,  2584,  2587,  2589,  2591,  2595,  2597,  2599,  2601,  2603,  2620,  2622,  2630,  2634,  2934
  2935,  2937,  2939,  2944,  2947,  2948,  2952,  2959,  2960,  2961,  2966,  2970,  2973,  2974,  2981,  2984
  2985,  2986,  2987,  2988,  2990,  2992,  2993,  2994,  2996,  2999,  3002,  3003,  3006,  3008,  3010,  3014
** ... 57 like lines cut
*Elset, elset=_contact_S3, internal
     5,     8,    10,    13,    17,    22,    24,    25,    31,    32,    34,    36,    38,    43,    46,    50
    56,    93,   104,   111,   163,   424,   427,   429,   432,   436,   441,   443,   444,   450,   451,   453
   455,   457,   462,   465,   469,   475,   512,   523,   530,   582,   843,   846,   848,   851,   855,   860
   862,   863,   869,   870,   872,   874,   876,   881,   884,   888,   894,   931,   942,   949,  1001,  1262
  1265,  1267,  1270,  1274,  1279,  1281,  1282,  1288,  1289,  1291,  1293,  1295,  1300,  1303,  1307,  1313
  1350,  1361,  1368,  1420,  1681,  1684,  1686,  1689,  1693,  1698,  1700,  1701,  1707,  1708,  1710,  1712
  1714,  1719,  1722,  1726,  1732,  1769,  1780,  1787,  1839,  2100,  2103,  2105,  2108,  2112,  2117,  2119
  2120,  2126,  2127,  2129,  2131,  2133,  2138,  2141,  2145,  2151,  2188,  2199,  2206,  2258,  2519,  2522
  2524,  2527,  2531,  2536,  2538,  2539,  2545,  2546,  2548,  2550,  2552,  2557,  2560,  2564,  2570,  2607
  2618,  2625,  2677,  2938,  2941,  2943,  2946,  2950,  2955,  2957,  2958,  2964,  2965,  2967,  2969,  2971
  2976,  2979,  2983,  2989,  3026,  3037,  3044,  3096,  3357,  3360,  3362,  3365,  3369,  3374,  3376,  3377
  3383,  3384,  3386,  3388,  3390,  3395,  3398,  3402,  3408,  3445,  3456,  3463,  3515,  3776,  3779,  3781
  3784,  3788,  3793,  3795,  3796,  3802,  3803,  3805,  3807,  3809,  3814,  3817,  3821,  3827,  3864,  3875
  3882,  3934,  4195,  4198,  4200,  4203,  4207,  4212,  4214,  4215,  4221,  4222,  4224,  4226,  4228,  4233
  4236,  4240,  4246,  4283,  4294,  4301,  4353,  4614,  4617,  4619,  4622,  4626,  4631,  4633,  4634,  4640
  4641,  4643,  4645,  4647,  4652,  4655,  4659,  4665,  4702,  4713,  4720,  4772,  5033,  5036,  5038,  5041
  5045,  5050,  5052,  5053,  5059,  5060,  5062,  5064,  5066,  5071,  5074,  5078,  5084,  5121,  5132,  5139
  5191,  5452,  5455,  5457,  5460,  5464,  5469,  5471,  5472,  5478,  5479,  5481,  5483,  5485,  5490,  5493
  5497,  5503,  5540,  5551,  5558,  5610,  5871,  5874,  5876,  5879,  5883,  5888,  5890,  5891,  5897,  5898
  5900,  5902,  5904,  5909,  5912,  5916,  5922,  5959,  5970,  5977,  6029,  6290,  6293,  6295,  6298,  6302
** ... 20 like lines cut
*Surface, type=ELEMENT, name=contact
_contact_S5, S5
_contact_S3, S3
** Section: Section-1
*Solid Section, elset=cylinder, material=Material-1
,
*End Part
**  
**
** ASSEMBLY
**
*Assembly, name=Assembly
**  
*Instance, name=cylinder-1, part=cylinder
*End Instance
**  
*End Assembly
** 
** MATERIALS
** 
*Material, name=Material-1
*Hyperelastic, neo hooke
 0.24, 0.4
