*Heading
** Job name: ellipsebian Model name: ellipsebian
** Generated by: Abaqus/CAE 2021
*Preprint, echo=NO, model=NO, history=NO, contact=NO
**
** PARTS
**
*Part, name=cylinder
*Node
      1,   33.9376984,          30.,   64.7288361
      2,   36.7789841,          30.,    63.933609
      3,   39.4425545,          30.,   62.6634102
      4,   44.0270042,          30.,   58.9694328
      5,   45.8951683,          30.,   56.6833572
      6,   48.7484741,          30.,   51.5238647
      7,   50.4402733,          30.,   45.8731003
      8,          51.,          30.,   39.9999886
      9,   50.4402695,          30.,   34.1268806
     10,   48.7484703,          30.,   28.4761238
     11,   45.8951645,          30.,   23.3166409
     12,   44.0270004,          30.,   21.0305672
     13,   39.4425507,          30.,   17.3365898
     14,   36.7789841,          30.,   16.0663891
     15,   33.9377022,          30.,   15.2711611
     16,          31.,          30.,          65.
     17,          31.,          30.,          15.
     18,   28.0622997,          30.,   15.2711611
     19,   25.2210159,          30.,   16.0663891
     20,   22.5574474,          30.,   17.3365898
** ... 5839 like lines cut
*Element, type=C3D8
   1,   16,  106,  109,    1,  295,  385,  388,  280
   2,  134,  124,   49,  109,  413,  403,  328,  388
   3,    1,  109,   49,    2,  280,  388,  328,  281
   4,   65,    3,    2,   49,  344,  282,  281,  328
   5,   48,   82,   66,   30,  327,  361,  345,  309
   6,    5,   63,   68,   34,  284,  342,  347,  313
   7,   83,   85,  148,  125,  362,  364,  427,  404
   8,  115,   27,   46,   80,  394,  306,  325,  359
   9,   79,  118,  140,  178,  358,  397,  419,  457
  10,  118,   25,   44,   78,  397,  304,  323,  357
  11,   22,   53,   76,   42,  301,  332,  355,  321
  12,  116,   23,   42,   76,  395,  302,  321,  355
  13,   58,   54,   93,   89,  337,  333,  372,  368
  14,   18,   56,   57,   19,  297,  335,  336,  298
  15,   15,  108,   55,   17,  294,  387,  334,  296
  16,   56,   18,   17,   55,  335,  297,  296,  334
  17,  123,   90,  158,  150,  402,  369,  437,  429
  18,  111,   20,   19,   57,  390,  299,  298,  336
  19,  237,   74,  236,   86,  516,  353,  515,  365
  20,  149,  171,  137,  237,  428,  450,  416,  516
** ... 5060 like lines cut
*Nset, nset=contact
    1,    2,    3,    4,    5,    6,    7,    8,    9,   10,   11,   12,   13,   14,   15,   16
   17,   18,   19,   20,   21,   22,   23,   24,   25,   26,   27,   28,   29,   30,   31,   32
   33,   34,   35,   36,   37,   38,   39,   40,   41,   42,   43,   44,   45,   46,   47,   48
   49,   50,   51,   52,   53,   54,   55,   56,   57,   58,   59,   60,   61,   62,   63,   64
   65,   66,   67,   68,   69,   70,   71,   72,   73,   74,   75,   76,   77,   78,   79,   80
   81,   82,   83,   84,   85,   86,   87,   88,   89,   90,   91,   92,   93,   94,   95,   96
   97,   98,   99,  100,  101,  102,  103,  104,  105,  106,  107,  108,  109,  110,  111,  112
  113,  114,  115,  116,  117,  118,  119,  120,  121,  122,  123,  124,  125,  126,  127,  128
  129,  130,  131,  132,  133,  134,  135,  136,  137,  138,  139,  140,  141,  142,  143,  144
  145,  146,  147,  148,  149,  150,  151,  152,  153,  154,  155,  156,  157,  158,  159,  160
  161,  162,  163,  164,  165,  166,  167,  168,  169,  170,  171,  172,  173,  174,  175,  176
  177,  178,  179,  180,  181,  182,  183,  184,  185,  186,  187,  188,  189,  190,  191,  192
  193,  194,  195,  196,  197,  198,  199,  200,  201,  202,  203,  204,  205,  206,  207,  208
  209,  210,  211,  212,  213,  214,  215,  216,  217,  218,  219,  220,  221,  222,  223,  224
  225,  226,  227,  228,  229,  230,  231,  232,  233,  234,  235,  236,  237,  238,  239,  240
  241,  242,  243,  244,  245,  246,  247,  248,  249,  250,  251,  252,  253,  254,  255,  256
  257,  258,  259,  260,  261,  262,  263,  264,  265,  266,  267,  268,  269,  270,  271,  272
  273,  274,  275,  276,  277,  278,  279,  280,  281,  282,  283,  284,  285,  286,  287,  288
  289,  290,  291,  292,  293,  294,  295,  296,  297,  298,  299,  300,  301,  302,  303,  304
  305,  306,  307,  308,  309,  310,  311,  312,  313,  314,  315,  316,  317,  318,  319,  320
** ... 72 like lines cut
*Elset, elset=contact
    1,    2,    3,    4,    5,    6,    7,    8,    9,   10,   11,   12,   13,   14,   15,   16
   17,   18,   19,   20,   21,   22,   23,   24,   25,   26,   27,   28,   29,   30,   31,   32
   33,   34,   35,   36,   37,   38,   39,   40,   41,   42,   43,   44,   45,   46,   47,   48
   49,   50,   51,   52,   53,   54,   55,   56,   57,   58,   59,   60,   61,   62,   63,   64
   65,   66,   67,   68,   69,   70,   71,   72,   73,   74,   75,   76,   77,   78,   79,   80
   81,   82,   83,   84,   85,   86,   87,   88,   89,   90,   91,   92,   93,   94,   95,   96
   97,   98,   99,  100,  101,  102,  103,  104,  105,  106,  107,  108,  109,  110,  111,  112
  113,  114,  115,  116,  117,  118,  119,  120,  121,  122,  123,  124,  125,  126,  127,  128
  129,  130,  131,  132,  133,  134,  135,  136,  137,  138,  139,  140,  141,  142,  143,  144
  145,  146,  147,  148,  149,  150,  151,  152,  153,  154,  155,  156,  157,  158,  159,  160
  161,  162,  163,  164,  165,  166,  167,  168,  169,  170,  171,  172,  173,  174,  175,  176
  177,  178,  179,  180,  181,  182,  183,  184,  185,  186,  187,  188,  189,  190,  191,  192
  193,  194,  195,  196,  197,  198,  199,  200,  201,  202,  203,  204,  205,  206,  207,  208
  209,  210,  211,  212,  213,  214,  215,  216,  217,  218,  219,  220,  221,  222,  223,  224
  225,  226,  227,  228,  229,  230,  231,  232,  233,  234,  235,  236,  237,  238,  239,  240
  241,  242,  243,  244,  245,  246,  247,  248,  249,  250,  251,  252,  253,  254,  255,  257
  258,  259,  260,  262,  264,  265,  266,  268,  269,  270,  272,  276,  278,  279,  281,  283
  284,  286,  288,  290,  291,  292,  294,  295,  296,  297,  298,  299,  300,  301,  302,  303
  304,  306,  307,  308,  311,  313,  315,  317,  319,  322,  325,  331,  333,  360,  509,  511
  512,  513,  514,  516,  518,  519,  520,  522,  523,  524,  526,  530,  532,  533,  535,  537
** ... 66 like lines cut
*Nset, nset=cylinder, generate
    1,  5859,     1
*Elset, elset=cylinder, generate
    1,  5080,     1
*Elset, elset=_contact_S6, internal
    1,    3,    5,    6,   11,   14,   15,   29,   45,   46,   48,   49,   53,   57,   59,   61
   63,  255,  257,  259,  260,  265,  268,  269,  283,  299,  300,  302,  303,  307,  311,  313
  315,  317,  509,  511,  513,  514,  519,  522,  523,  537,  553,  554,  556,  557,  561,  565
  567,  569,  571,  763,  765,  767,  768,  773,  776,  777,  791,  807,  808,  810,  811,  815
  819,  821,  823,  825, 1017, 1019, 1021, 1022, 1027, 1030, 1031, 1045, 1061, 1062, 1064, 1065
 1069, 1073, 1075, 1077, 1079, 1271, 1273, 1275, 1276, 1281, 1284, 1285, 1299, 1315, 1316, 1318
 1319, 1323, 1327, 1329, 1331, 1333, 1525, 1527, 1529, 1530, 1535, 1538, 1539, 1553, 1569, 1570
 1572, 1573, 1577, 1581, 1583, 1585, 1587, 1779, 1781, 1783, 1784, 1789, 1792, 1793, 1807, 1823
 1824, 1826, 1827, 1831, 1835, 1837, 1839, 1841, 2033, 2035, 2037, 2038, 2043, 2046, 2047, 2061
 2077, 2078, 2080, 2081, 2085, 2089, 2091, 2093, 2095, 2287, 2289, 2291, 2292, 2297, 2300, 2301
 2315, 2331, 2332, 2334, 2335, 2339, 2343, 2345, 2347, 2349, 2541, 2543, 2545, 2546, 2551, 2554
 2555, 2569, 2585, 2586, 2588, 2589, 2593, 2597, 2599, 2601, 2603, 2795, 2797, 2799, 2800, 2805
 2808, 2809, 2823, 2839, 2840, 2842, 2843, 2847, 2851, 2853, 2855, 2857, 3049, 3051, 3053, 3054
 3059, 3062, 3063, 3077, 3093, 3094, 3096, 3097, 3101, 3105, 3107, 3109, 3111, 3303, 3305, 3307
 3308, 3313, 3316, 3317, 3331, 3347, 3348, 3350, 3351, 3355, 3359, 3361, 3363, 3365, 3557, 3559
 3561, 3562, 3567, 3570, 3571, 3585, 3601, 3602, 3604, 3605, 3609, 3613, 3615, 3617, 3619, 3811
 3813, 3815, 3816, 3821, 3824, 3825, 3839, 3855, 3856, 3858, 3859, 3863, 3867, 3869, 3871, 3873
 4065, 4067, 4069, 4070, 4075, 4078, 4079, 4093, 4109, 4110, 4112, 4113, 4117, 4121, 4123, 4125
 4127, 4319, 4321, 4323, 4324, 4329, 4332, 4333, 4347, 4363, 4364, 4366, 4367, 4371, 4375, 4377
 4379, 4381, 4573, 4575, 4577, 4578, 4583, 4586, 4587, 4601, 4617, 4618, 4620, 4621, 4625, 4629
 4631, 4633, 4635, 4827, 4829, 4831, 4832, 4837, 4840, 4841, 4855, 4871, 4872, 4874, 4875, 4879
 4883, 4885, 4887, 4889
*Elset, elset=_contact_S4, internal
    4,    8,   10,   12,   16,   18,   22,   24,   25,   27,   30,   32,   36,   37,   38,   40
   41,   42,   43,   44,   50,   52,   68,   71,   77,   79,  258,  262,  264,  266,  270,  272
  276,  278,  279,  281,  284,  286,  290,  291,  292,  294,  295,  296,  297,  298,  304,  306
  322,  325,  331,  333,  512,  516,  518,  520,  524,  526,  530,  532,  533,  535,  538,  540
  544,  545,  546,  548,  549,  550,  551,  552,  558,  560,  576,  579,  585,  587,  766,  770
  772,  774,  778,  780,  784,  786,  787,  789,  792,  794,  798,  799,  800,  802,  803,  804
  805,  806,  812,  814,  830,  833,  839,  841, 1020, 1024, 1026, 1028, 1032, 1034, 1038, 1040
 1041, 1043, 1046, 1048, 1052, 1053, 1054, 1056, 1057, 1058, 1059, 1060, 1066, 1068, 1084, 1087
 1093, 1095, 1274, 1278, 1280, 1282, 1286, 1288, 1292, 1294, 1295, 1297, 1300, 1302, 1306, 1307
 1308, 1310, 1311, 1312, 1313, 1314, 1320, 1322, 1338, 1341, 1347, 1349, 1528, 1532, 1534, 1536
 1540, 1542, 1546, 1548, 1549, 1551, 1554, 1556, 1560, 1561, 1562, 1564, 1565, 1566, 1567, 1568
 1574, 1576, 1592, 1595, 1601, 1603, 1782, 1786, 1788, 1790, 1794, 1796, 1800, 1802, 1803, 1805
 1808, 1810, 1814, 1815, 1816, 1818, 1819, 1820, 1821, 1822, 1828, 1830, 1846, 1849, 1855, 1857
 2036, 2040, 2042, 2044, 2048, 2050, 2054, 2056, 2057, 2059, 2062, 2064, 2068, 2069, 2070, 2072
 2073, 2074, 2075, 2076, 2082, 2084, 2100, 2103, 2109, 2111, 2290, 2294, 2296, 2298, 2302, 2304
 2308, 2310, 2311, 2313, 2316, 2318, 2322, 2323, 2324, 2326, 2327, 2328, 2329, 2330, 2336, 2338
 2354, 2357, 2363, 2365, 2544, 2548, 2550, 2552, 2556, 2558, 2562, 2564, 2565, 2567, 2570, 2572
 2576, 2577, 2578, 2580, 2581, 2582, 2583, 2584, 2590, 2592, 2608, 2611, 2617, 2619, 2798, 2802
 2804, 2806, 2810, 2812, 2816, 2818, 2819, 2821, 2824, 2826, 2830, 2831, 2832, 2834, 2835, 2836
 2837, 2838, 2844, 2846, 2862, 2865, 2871, 2873, 3052, 3056, 3058, 3060, 3064, 3066, 3070, 3072
** ... 13 like lines cut
*Elset, elset=_contact_S5, internal
   34,   47,   54,  106,  288,  301,  308,  360,  542,  555,  562,  614,  796,  809,  816,  868
 1050, 1063, 1070, 1122, 1304, 1317, 1324, 1376, 1558, 1571, 1578, 1630, 1812, 1825, 1832, 1884
 2066, 2079, 2086, 2138, 2320, 2333, 2340, 2392, 2574, 2587, 2594, 2646, 2828, 2841, 2848, 2900
 3082, 3095, 3102, 3154, 3336, 3349, 3356, 3408, 3590, 3603, 3610, 3662, 3844, 3857, 3864, 3916
 4098, 4111, 4118, 4170, 4352, 4365, 4372, 4424, 4606, 4619, 4626, 4678, 4860, 4873, 4880, 4932
*Elset, elset=_contact_S3, internal, generate
   65,  4891,   254
*Elset, elset=_contact_S2, internal, generate
 4827,  5080,     1
*Elset, elset=_contact_S1, internal, generate
   1,  254,    1
*Surface, type=ELEMENT, name=contact
_contact_S6, S6
_contact_S4, S4
_contact_S2, S2
_contact_S5, S5
_contact_S3, S3
_contact_S1, S1
** Section: Section-1
*Solid Section, elset=cylinder, material=Material-1
,
*End Part
**  
**
** ASSEMBLY
**
*Assembly, name=Assembly
**  
*Instance, name=cylinder-1, part=cylinder
*End Instance
**  
*End Assembly
** 
** MATERIALS
** 
*Material, name=Material-1
*Hyperelastic, neo hooke
 0.24, 0.4
