*Heading
** Job name: hulu Model name: hulu
** Generated by: Abaqus/CAE 2021
*Preprint, echo=NO, model=NO, history=NO, contact=NO
**
** PARTS
**
*Part, name=cylinder
*Node
      1,    48.522213,          30.,   39.4313049
      2,   49.7947006,          30.,   33.5728493
      3,   49.5279846,          30.,   24.6006584
      4,   47.8939171,          30.,   18.8330994
      5,    46.629734,          30.,   16.1113796
      6,   45.0621834,          30.,   13.5526123
      7,   41.0195274,          30.,    9.1369791
      8,   38.5671959,          30.,   7.40979338
      9,   35.8690529,          30.,   6.10065985
     10,   30.0000019,          30.,           5.
     11,   24.1309509,          30.,   6.10065842
     12,    21.432806,          30.,   7.40979242
     13,   18.9804745,          30.,   9.13697815
     14,   14.9378166,          30.,   13.5526114
     15,   13.3702688,          30.,   16.1113796
     16,   12.1060848,          30.,   18.8330994
     17,   10.4720163,          30.,   24.6006584
     18,   10.2052975,          30.,   33.5728493
     19,   11.4777889,          30.,   39.4313049
     20,   46.0620804,          30.,   44.8959732
** ... 10522 like lines cut
*Element, type=C3D8
   1,    77,   172,    53,     9,   579,   674,   555,   511
   2,   172,   110,    10,    53,   674,   612,   512,   555
   3,   175,    77,     9,     8,   677,   579,   511,   510
   4,   173,    12,    11,    78,   675,   514,   513,   580
   5,    55,   112,   179,    14,   557,   614,   681,   516
   6,     4,    51,    79,   108,   506,   553,   581,   610
   7,   180,   109,     7,    52,   682,   611,   509,   554
   8,   181,   180,    52,     6,   683,   682,   554,   508
   9,   443,   113,    56,    16,   945,   615,   558,   518
  10,   106,    17,    56,   113,   608,   519,   558,   615
  11,   268,   473,   253,   460,   770,   975,   755,   962
  12,   181,   183,   259,   226,   683,   685,   761,   728
  13,    80,   103,    50,    49,   582,   605,   552,   551
  14,    49,     2,   105,    80,   551,   504,   607,   582
  15,    48,     1,   104,    81,   550,   503,   606,   583
  16,   162,   169,   103,    80,   664,   671,   605,   582
  17,   133,    76,    45,    84,   635,   578,   547,   586
  18,    62,   119,    96,    25,   564,   621,   598,   527
  19,    98,    44,    75,   132,   600,   546,   577,   634
  20,   130,   236,   312,   184,   632,   738,   814,   686
** ... 9240 like lines cut
*Nset, nset=contact
     1,     2,     3,     4,     5,     6,     7,     8,     9,    10,    11,    12,    13,    14,    15,    16
    17,    18,    19,    20,    21,    22,    23,    24,    25,    26,    27,    28,    29,    30,    31,    32
    33,    34,    35,    36,    37,    38,    39,    40,    41,    42,    43,    44,    45,    46,    47,    48
    49,    50,    51,    52,    53,    54,    55,    56,    57,    58,    59,    60,    61,    62,    63,    64
    65,    66,    67,    68,    69,    70,    71,    72,    73,    74,    75,    76,    77,    78,    79,    80
    81,    82,    83,    84,    85,    86,    87,    88,    89,    90,    91,    92,    93,    94,    95,    96
    97,    98,    99,   100,   101,   102,   103,   104,   105,   106,   107,   108,   109,   110,   111,   112
   113,   114,   115,   116,   117,   118,   119,   120,   121,   122,   123,   124,   125,   126,   127,   128
   129,   130,   131,   132,   133,   134,   135,   136,   137,   138,   139,   140,   141,   142,   143,   144
   145,   146,   147,   148,   149,   150,   151,   152,   153,   154,   155,   156,   157,   158,   159,   160
   161,   162,   163,   164,   165,   166,   167,   168,   169,   170,   171,   172,   173,   174,   175,   176
   177,   178,   179,   180,   181,   182,   183,   184,   185,   186,   187,   188,   189,   190,   191,   192
   193,   194,   195,   196,   197,   198,   199,   200,   201,   202,   203,   204,   205,   206,   207,   208
   209,   210,   211,   212,   213,   214,   215,   216,   217,   218,   219,   220,   221,   222,   223,   224
   225,   226,   227,   228,   229,   230,   231,   232,   233,   234,   235,   236,   237,   238,   239,   240
   241,   242,   243,   244,   245,   246,   247,   248,   249,   250,   251,   252,   253,   254,   255,   256
   257,   258,   259,   260,   261,   262,   263,   264,   265,   266,   267,   268,   269,   270,   271,   272
   273,   274,   275,   276,   277,   278,   279,   280,   281,   282,   283,   284,   285,   286,   287,   288
   289,   290,   291,   292,   293,   294,   295,   296,   297,   298,   299,   300,   301,   302,   303,   304
   305,   306,   307,   308,   309,   310,   311,   312,   313,   314,   315,   316,   317,   318,   319,   320
** ... 133 like lines cut
*Elset, elset=contact
    1,    2,    3,    4,    5,    6,    7,    8,    9,   10,   11,   12,   13,   14,   15,   16
   17,   18,   19,   20,   21,   22,   23,   24,   25,   26,   27,   28,   29,   30,   31,   32
   33,   34,   35,   36,   37,   38,   39,   40,   41,   42,   43,   44,   45,   46,   47,   48
   49,   50,   51,   52,   53,   54,   55,   56,   57,   58,   59,   60,   61,   62,   63,   64
   65,   66,   67,   68,   69,   70,   71,   72,   73,   74,   75,   76,   77,   78,   79,   80
   81,   82,   83,   84,   85,   86,   87,   88,   89,   90,   91,   92,   93,   94,   95,   96
   97,   98,   99,  100,  101,  102,  103,  104,  105,  106,  107,  108,  109,  110,  111,  112
  113,  114,  115,  116,  117,  118,  119,  120,  121,  122,  123,  124,  125,  126,  127,  128
  129,  130,  131,  132,  133,  134,  135,  136,  137,  138,  139,  140,  141,  142,  143,  144
  145,  146,  147,  148,  149,  150,  151,  152,  153,  154,  155,  156,  157,  158,  159,  160
  161,  162,  163,  164,  165,  166,  167,  168,  169,  170,  171,  172,  173,  174,  175,  176
  177,  178,  179,  180,  181,  182,  183,  184,  185,  186,  187,  188,  189,  190,  191,  192
  193,  194,  195,  196,  197,  198,  199,  200,  201,  202,  203,  204,  205,  206,  207,  208
  209,  210,  211,  212,  213,  214,  215,  216,  217,  218,  219,  220,  221,  222,  223,  224
  225,  226,  227,  228,  229,  230,  231,  232,  233,  234,  235,  236,  237,  238,  239,  240
  241,  242,  243,  244,  245,  246,  247,  248,  249,  250,  251,  252,  253,  254,  255,  256
  257,  258,  259,  260,  261,  262,  263,  264,  265,  266,  267,  268,  269,  270,  271,  272
  273,  274,  275,  276,  277,  278,  279,  280,  281,  282,  283,  284,  285,  286,  287,  288
  289,  290,  291,  292,  293,  294,  295,  296,  297,  298,  299,  300,  301,  302,  303,  304
  305,  306,  307,  308,  309,  310,  311,  312,  313,  314,  315,  316,  317,  318,  319,  320
** ... 124 like lines cut
*Nset, nset=cylinder, generate
     1,  10542,      1
*Elset, elset=cylinder, generate
    1,  9260,     1
*Elset, elset=_contact_S6, internal
    5,   18,   24,   25,   32,   33,   34,   36,   37,   40,   42,   46,   47,   48,   50,   55
   59,   60,   61,   65,  101,  123,  468,  481,  487,  488,  495,  496,  497,  499,  500,  503
  505,  509,  510,  511,  513,  518,  522,  523,  524,  528,  564,  586,  931,  944,  950,  951
  958,  959,  960,  962,  963,  966,  968,  972,  973,  974,  976,  981,  985,  986,  987,  991
 1027, 1049, 1394, 1407, 1413, 1414, 1421, 1422, 1423, 1425, 1426, 1429, 1431, 1435, 1436, 1437
 1439, 1444, 1448, 1449, 1450, 1454, 1490, 1512, 1857, 1870, 1876, 1877, 1884, 1885, 1886, 1888
 1889, 1892, 1894, 1898, 1899, 1900, 1902, 1907, 1911, 1912, 1913, 1917, 1953, 1975, 2320, 2333
 2339, 2340, 2347, 2348, 2349, 2351, 2352, 2355, 2357, 2361, 2362, 2363, 2365, 2370, 2374, 2375
 2376, 2380, 2416, 2438, 2783, 2796, 2802, 2803, 2810, 2811, 2812, 2814, 2815, 2818, 2820, 2824
 2825, 2826, 2828, 2833, 2837, 2838, 2839, 2843, 2879, 2901, 3246, 3259, 3265, 3266, 3273, 3274
 3275, 3277, 3278, 3281, 3283, 3287, 3288, 3289, 3291, 3296, 3300, 3301, 3302, 3306, 3342, 3364
 3709, 3722, 3728, 3729, 3736, 3737, 3738, 3740, 3741, 3744, 3746, 3750, 3751, 3752, 3754, 3759
 3763, 3764, 3765, 3769, 3805, 3827, 4172, 4185, 4191, 4192, 4199, 4200, 4201, 4203, 4204, 4207
 4209, 4213, 4214, 4215, 4217, 4222, 4226, 4227, 4228, 4232, 4268, 4290, 4635, 4648, 4654, 4655
 4662, 4663, 4664, 4666, 4667, 4670, 4672, 4676, 4677, 4678, 4680, 4685, 4689, 4690, 4691, 4695
 4731, 4753, 5098, 5111, 5117, 5118, 5125, 5126, 5127, 5129, 5130, 5133, 5135, 5139, 5140, 5141
 5143, 5148, 5152, 5153, 5154, 5158, 5194, 5216, 5561, 5574, 5580, 5581, 5588, 5589, 5590, 5592
 5593, 5596, 5598, 5602, 5603, 5604, 5606, 5611, 5615, 5616, 5617, 5621, 5657, 5679, 6024, 6037
 6043, 6044, 6051, 6052, 6053, 6055, 6056, 6059, 6061, 6065, 6066, 6067, 6069, 6074, 6078, 6079
 6080, 6084, 6120, 6142, 6487, 6500, 6506, 6507, 6514, 6515, 6516, 6518, 6519, 6522, 6524, 6528
** ... 8 like lines cut
*Elset, elset=_contact_S4, internal
    4,   10,   17,   19,   21,   23,   26,   29,   41,   49,   53,   56,   58,   63,   68,   74
   76,   77,   78,   79,   80,   81,   82,   83,   85,   86,   91,   97,  107,  120,  125,  128
  173,  175,  467,  473,  480,  482,  484,  486,  489,  492,  504,  512,  516,  519,  521,  526
  531,  537,  539,  540,  541,  542,  543,  544,  545,  546,  548,  549,  554,  560,  570,  583
  588,  591,  636,  638,  930,  936,  943,  945,  947,  949,  952,  955,  967,  975,  979,  982
  984,  989,  994, 1000, 1002, 1003, 1004, 1005, 1006, 1007, 1008, 1009, 1011, 1012, 1017, 1023
 1033, 1046, 1051, 1054, 1099, 1101, 1393, 1399, 1406, 1408, 1410, 1412, 1415, 1418, 1430, 1438
 1442, 1445, 1447, 1452, 1457, 1463, 1465, 1466, 1467, 1468, 1469, 1470, 1471, 1472, 1474, 1475
 1480, 1486, 1496, 1509, 1514, 1517, 1562, 1564, 1856, 1862, 1869, 1871, 1873, 1875, 1878, 1881
 1893, 1901, 1905, 1908, 1910, 1915, 1920, 1926, 1928, 1929, 1930, 1931, 1932, 1933, 1934, 1935
 1937, 1938, 1943, 1949, 1959, 1972, 1977, 1980, 2025, 2027, 2319, 2325, 2332, 2334, 2336, 2338
 2341, 2344, 2356, 2364, 2368, 2371, 2373, 2378, 2383, 2389, 2391, 2392, 2393, 2394, 2395, 2396
 2397, 2398, 2400, 2401, 2406, 2412, 2422, 2435, 2440, 2443, 2488, 2490, 2782, 2788, 2795, 2797
 2799, 2801, 2804, 2807, 2819, 2827, 2831, 2834, 2836, 2841, 2846, 2852, 2854, 2855, 2856, 2857
 2858, 2859, 2860, 2861, 2863, 2864, 2869, 2875, 2885, 2898, 2903, 2906, 2951, 2953, 3245, 3251
 3258, 3260, 3262, 3264, 3267, 3270, 3282, 3290, 3294, 3297, 3299, 3304, 3309, 3315, 3317, 3318
 3319, 3320, 3321, 3322, 3323, 3324, 3326, 3327, 3332, 3338, 3348, 3361, 3366, 3369, 3414, 3416
 3708, 3714, 3721, 3723, 3725, 3727, 3730, 3733, 3745, 3753, 3757, 3760, 3762, 3767, 3772, 3778
 3780, 3781, 3782, 3783, 3784, 3785, 3786, 3787, 3789, 3790, 3795, 3801, 3811, 3824, 3829, 3832
 3877, 3879, 4171, 4177, 4184, 4186, 4188, 4190, 4193, 4196, 4208, 4216, 4220, 4223, 4225, 4230
** ... 23 like lines cut
*Elset, elset=_contact_S5, internal
    1,    2,    3,    7,    8,    9,   13,   39,   44,   66,   75,  177,  464,  465,  466,  470
  471,  472,  476,  502,  507,  529,  538,  640,  927,  928,  929,  933,  934,  935,  939,  965
  970,  992, 1001, 1103, 1390, 1391, 1392, 1396, 1397, 1398, 1402, 1428, 1433, 1455, 1464, 1566
 1853, 1854, 1855, 1859, 1860, 1861, 1865, 1891, 1896, 1918, 1927, 2029, 2316, 2317, 2318, 2322
 2323, 2324, 2328, 2354, 2359, 2381, 2390, 2492, 2779, 2780, 2781, 2785, 2786, 2787, 2791, 2817
 2822, 2844, 2853, 2955, 3242, 3243, 3244, 3248, 3249, 3250, 3254, 3280, 3285, 3307, 3316, 3418
 3705, 3706, 3707, 3711, 3712, 3713, 3717, 3743, 3748, 3770, 3779, 3881, 4168, 4169, 4170, 4174
 4175, 4176, 4180, 4206, 4211, 4233, 4242, 4344, 4631, 4632, 4633, 4637, 4638, 4639, 4643, 4669
 4674, 4696, 4705, 4807, 5094, 5095, 5096, 5100, 5101, 5102, 5106, 5132, 5137, 5159, 5168, 5270
 5557, 5558, 5559, 5563, 5564, 5565, 5569, 5595, 5600, 5622, 5631, 5733, 6020, 6021, 6022, 6026
 6027, 6028, 6032, 6058, 6063, 6085, 6094, 6196, 6483, 6484, 6485, 6489, 6490, 6491, 6495, 6521
 6526, 6548, 6557, 6659, 6946, 6947, 6948, 6952, 6953, 6954, 6958, 6984, 6989, 7011, 7020, 7122
 7409, 7410, 7411, 7415, 7416, 7417, 7421, 7447, 7452, 7474, 7483, 7585, 7872, 7873, 7874, 7878
 7879, 7880, 7884, 7910, 7915, 7937, 7946, 8048, 8335, 8336, 8337, 8341, 8342, 8343, 8347, 8373
 8378, 8400, 8409, 8511, 8798, 8799, 8800, 8804, 8805, 8806, 8810, 8836, 8841, 8863, 8872, 8974
*Elset, elset=_contact_S3, internal
    6,   14,   15,   43,   45,   70,   72,  102,  469,  477,  478,  506,  508,  533,  535,  565
  932,  940,  941,  969,  971,  996,  998, 1028, 1395, 1403, 1404, 1432, 1434, 1459, 1461, 1491
 1858, 1866, 1867, 1895, 1897, 1922, 1924, 1954, 2321, 2329, 2330, 2358, 2360, 2385, 2387, 2417
 2784, 2792, 2793, 2821, 2823, 2848, 2850, 2880, 3247, 3255, 3256, 3284, 3286, 3311, 3313, 3343
 3710, 3718, 3719, 3747, 3749, 3774, 3776, 3806, 4173, 4181, 4182, 4210, 4212, 4237, 4239, 4269
 4636, 4644, 4645, 4673, 4675, 4700, 4702, 4732, 5099, 5107, 5108, 5136, 5138, 5163, 5165, 5195
 5562, 5570, 5571, 5599, 5601, 5626, 5628, 5658, 6025, 6033, 6034, 6062, 6064, 6089, 6091, 6121
 6488, 6496, 6497, 6525, 6527, 6552, 6554, 6584, 6951, 6959, 6960, 6988, 6990, 7015, 7017, 7047
 7414, 7422, 7423, 7451, 7453, 7478, 7480, 7510, 7877, 7885, 7886, 7914, 7916, 7941, 7943, 7973
 8340, 8348, 8349, 8377, 8379, 8404, 8406, 8436, 8803, 8811, 8812, 8840, 8842, 8867, 8869, 8899
*Elset, elset=_contact_S2, internal, generate
 8798,  9260,     1
*Elset, elset=_contact_S1, internal, generate
   1,  463,    1
*Surface, type=ELEMENT, name=contact
_contact_S6, S6
_contact_S4, S4
_contact_S2, S2
_contact_S5, S5
_contact_S3, S3
_contact_S1, S1
** Section: Section-1
*Solid Section, elset=cylinder, material=Material-1
,
*End Part
**  
**
** ASSEMBLY
**
*Assembly, name=Assembly
**  
*Instance, name=cylinder-1, part=cylinder
*End Instance
**  
*End Assembly
** 
** MATERIALS
** 
*Material, name=Material-1
*Hyperelastic, neo hooke
 0.24, 0.4
