*Heading
** Job name: ellipseshu Model name: ellipseShu
** Generated by: Abaqus/CAE 2021
*Preprint, echo=NO, model=NO, history=NO, contact=NO
**
** PARTS
**
*Part, name=cylinder
*Node
      1,   29.9750156,          30.,   20.3451309
      2,    27.095583,          30.,   21.3371277
      3,   24.4627323,          30.,   22.8705158
      4,    20.085886,          30.,   27.0924091
      5,     18.34025,          30.,   29.5927353
      6,   15.6555128,          30.,   35.0624733
      7,    13.415472,          30.,   43.9169006
      8,          13.,          30.,   50.0000496
      9,   13.4154854,          30.,   56.0831985
     10,   15.6555481,          30.,   64.9376221
     11,   18.3403015,          30.,   70.4073486
     12,    20.085947,          30.,   72.9076691
     13,   24.4627781,          30.,   77.1295166
     14,   27.0956306,          30.,   78.6628952
     15,   29.9750633,          30.,   79.6548843
     16,          33.,          30.,          20.
     17,          33.,          30.,          80.
     18,   36.0249863,          30.,   79.6548691
     19,   38.9044151,          30.,   78.6628723
     20,   41.5372658,          30.,   77.1294861
** ... 6784 like lines cut
*Element, type=C3D8
   1,  141,  139,    1,   16,  465,  463,  325,  340
   2,   53,  141,   16,   32,  377,  465,  340,  356
   3,    2,    1,  139,  140,  326,  325,  463,  464
   4,  142,   77,   33,    3,  466,  401,  357,  327
   5,  144,   53,   78,  273,  468,  377,  402,  597
   6,  235,  178,  232,  204,  559,  502,  556,  528
   7,  124,   74,   80,  119,  448,  398,  404,  443
   8,   82,   73,   37,    7,  406,  397,  361,  331
   9,  114,   70,   86,  118,  438,  394,  410,  442
  10,   25,   47,   58,   93,  349,  371,  382,  417
  11,  121,   95,   81,  125,  445,  419,  405,  449
  12,  102,  278,  146,  104,  426,  602,  470,  428
  13,   14,   13,   88,   63,  338,  337,  412,  387
  14,   62,   89,   21,   43,  386,  413,  345,  367
  15,   15,   14,   63,   64,  339,  338,  387,  388
  16,   18,   17,   65,  272,  342,  341,  389,  596
  17,  227,   65,   64,  277,  551,  389,  388,  601
  18,   65,  227,  203,   66,  389,  551,  527,  390
  19,   67,   62,   43,   20,  391,  386,  367,  344
  20,   44,   22,   69,   60,  368,  346,  393,  384
** ... 5920 like lines cut
*Nset, nset=contact
    1,    2,    3,    4,    5,    6,    7,    8,    9,   10,   11,   12,   13,   14,   15,   16
   17,   18,   19,   20,   21,   22,   23,   24,   25,   26,   27,   28,   29,   30,   31,   32
   33,   34,   35,   36,   37,   38,   39,   40,   41,   42,   43,   44,   45,   46,   47,   48
   49,   50,   51,   52,  325,  326,  327,  328,  329,  330,  331,  332,  333,  334,  335,  336
  337,  338,  339,  340,  341,  342,  343,  344,  345,  346,  347,  348,  349,  350,  351,  352
  353,  354,  355,  356,  357,  358,  359,  360,  361,  362,  363,  364,  365,  366,  367,  368
  369,  370,  371,  372,  373,  374,  375,  376,  649,  650,  651,  652,  653,  654,  655,  656
  657,  658,  659,  660,  661,  662,  663,  664,  665,  666,  667,  668,  669,  670,  671,  672
  673,  674,  675,  676,  677,  678,  679,  680,  681,  682,  683,  684,  685,  686,  687,  688
  689,  690,  691,  692,  693,  694,  695,  696,  697,  698,  699,  700,  973,  974,  975,  976
  977,  978,  979,  980,  981,  982,  983,  984,  985,  986,  987,  988,  989,  990,  991,  992
  993,  994,  995,  996,  997,  998,  999, 1000, 1001, 1002, 1003, 1004, 1005, 1006, 1007, 1008
 1009, 1010, 1011, 1012, 1013, 1014, 1015, 1016, 1017, 1018, 1019, 1020, 1021, 1022, 1023, 1024
 1297, 1298, 1299, 1300, 1301, 1302, 1303, 1304, 1305, 1306, 1307, 1308, 1309, 1310, 1311, 1312
 1313, 1314, 1315, 1316, 1317, 1318, 1319, 1320, 1321, 1322, 1323, 1324, 1325, 1326, 1327, 1328
 1329, 1330, 1331, 1332, 1333, 1334, 1335, 1336, 1337, 1338, 1339, 1340, 1341, 1342, 1343, 1344
 1345, 1346, 1347, 1348, 1621, 1622, 1623, 1624, 1625, 1626, 1627, 1628, 1629, 1630, 1631, 1632
 1633, 1634, 1635, 1636, 1637, 1638, 1639, 1640, 1641, 1642, 1643, 1644, 1645, 1646, 1647, 1648
 1649, 1650, 1651, 1652, 1653, 1654, 1655, 1656, 1657, 1658, 1659, 1660, 1661, 1662, 1663, 1664
 1665, 1666, 1667, 1668, 1669, 1670, 1671, 1672, 1945, 1946, 1947, 1948, 1949, 1950, 1951, 1952
** ... 49 like lines cut
*Elset, elset=contact
    1,    2,    3,    4,    8,   10,   13,   14,   15,   16,   19,   20,   23,   25,   27,   28
   29,   30,   32,   33,   35,   36,   38,   39,   40,   41,   42,   44,   45,   46,   47,   48
   50,   51,   52,   53,   54,   55,   56,   62,   63,   64,   67,   69,   71,   73,   74,   77
   87,   90,  135,  274,  298,  299,  300,  301,  305,  307,  310,  311,  312,  313,  316,  317
  320,  322,  324,  325,  326,  327,  329,  330,  332,  333,  335,  336,  337,  338,  339,  341
  342,  343,  344,  345,  347,  348,  349,  350,  351,  352,  353,  359,  360,  361,  364,  366
  368,  370,  371,  374,  384,  387,  432,  571,  595,  596,  597,  598,  602,  604,  607,  608
  609,  610,  613,  614,  617,  619,  621,  622,  623,  624,  626,  627,  629,  630,  632,  633
  634,  635,  636,  638,  639,  640,  641,  642,  644,  645,  646,  647,  648,  649,  650,  656
  657,  658,  661,  663,  665,  667,  668,  671,  681,  684,  729,  868,  892,  893,  894,  895
  899,  901,  904,  905,  906,  907,  910,  911,  914,  916,  918,  919,  920,  921,  923,  924
  926,  927,  929,  930,  931,  932,  933,  935,  936,  937,  938,  939,  941,  942,  943,  944
  945,  946,  947,  953,  954,  955,  958,  960,  962,  964,  965,  968,  978,  981, 1026, 1165
 1189, 1190, 1191, 1192, 1196, 1198, 1201, 1202, 1203, 1204, 1207, 1208, 1211, 1213, 1215, 1216
 1217, 1218, 1220, 1221, 1223, 1224, 1226, 1227, 1228, 1229, 1230, 1232, 1233, 1234, 1235, 1236
 1238, 1239, 1240, 1241, 1242, 1243, 1244, 1250, 1251, 1252, 1255, 1257, 1259, 1261, 1262, 1265
 1275, 1278, 1323, 1462, 1486, 1487, 1488, 1489, 1493, 1495, 1498, 1499, 1500, 1501, 1504, 1505
 1508, 1510, 1512, 1513, 1514, 1515, 1517, 1518, 1520, 1521, 1523, 1524, 1525, 1526, 1527, 1529
 1530, 1531, 1532, 1533, 1535, 1536, 1537, 1538, 1539, 1540, 1541, 1547, 1548, 1549, 1552, 1554
 1556, 1558, 1559, 1562, 1572, 1575, 1620, 1759, 1783, 1784, 1785, 1786, 1790, 1792, 1795, 1796
** ... 45 like lines cut
*Nset, nset=cylinder, generate
    1,  6804,     1
*Elset, elset=cylinder, generate
    1,  5940,     1
*Elset, elset=_contact_S5, internal
    1,    2,    4,    8,   14,   19,   23,   25,   28,   29,   30,   38,   41,   44,   45,   46
   50,   51,   54,   55,   56,   62,   64,   67,  298,  299,  301,  305,  311,  316,  320,  322
  325,  326,  327,  335,  338,  341,  342,  343,  347,  348,  351,  352,  353,  359,  361,  364
  595,  596,  598,  602,  608,  613,  617,  619,  622,  623,  624,  632,  635,  638,  639,  640
  644,  645,  648,  649,  650,  656,  658,  661,  892,  893,  895,  899,  905,  910,  914,  916
  919,  920,  921,  929,  932,  935,  936,  937,  941,  942,  945,  946,  947,  953,  955,  958
 1189, 1190, 1192, 1196, 1202, 1207, 1211, 1213, 1216, 1217, 1218, 1226, 1229, 1232, 1233, 1234
 1238, 1239, 1242, 1243, 1244, 1250, 1252, 1255, 1486, 1487, 1489, 1493, 1499, 1504, 1508, 1510
 1513, 1514, 1515, 1523, 1526, 1529, 1530, 1531, 1535, 1536, 1539, 1540, 1541, 1547, 1549, 1552
 1783, 1784, 1786, 1790, 1796, 1801, 1805, 1807, 1810, 1811, 1812, 1820, 1823, 1826, 1827, 1828
 1832, 1833, 1836, 1837, 1838, 1844, 1846, 1849, 2080, 2081, 2083, 2087, 2093, 2098, 2102, 2104
 2107, 2108, 2109, 2117, 2120, 2123, 2124, 2125, 2129, 2130, 2133, 2134, 2135, 2141, 2143, 2146
 2377, 2378, 2380, 2384, 2390, 2395, 2399, 2401, 2404, 2405, 2406, 2414, 2417, 2420, 2421, 2422
 2426, 2427, 2430, 2431, 2432, 2438, 2440, 2443, 2674, 2675, 2677, 2681, 2687, 2692, 2696, 2698
 2701, 2702, 2703, 2711, 2714, 2717, 2718, 2719, 2723, 2724, 2727, 2728, 2729, 2735, 2737, 2740
 2971, 2972, 2974, 2978, 2984, 2989, 2993, 2995, 2998, 2999, 3000, 3008, 3011, 3014, 3015, 3016
 3020, 3021, 3024, 3025, 3026, 3032, 3034, 3037, 3268, 3269, 3271, 3275, 3281, 3286, 3290, 3292
 3295, 3296, 3297, 3305, 3308, 3311, 3312, 3313, 3317, 3318, 3321, 3322, 3323, 3329, 3331, 3334
 3565, 3566, 3568, 3572, 3578, 3583, 3587, 3589, 3592, 3593, 3594, 3602, 3605, 3608, 3609, 3610
 3614, 3615, 3618, 3619, 3620, 3626, 3628, 3631, 3862, 3863, 3865, 3869, 3875, 3880, 3884, 3886
** ... 10 like lines cut
*Elset, elset=_contact_S3, internal
    3,   10,   13,   15,   16,   20,   27,   32,   33,   35,   39,   40,   42,   47,   48,   52
   53,   63,   69,   71,   73,   74,   77,   87,   90,  135,  274,  300,  307,  310,  312,  313
  317,  324,  329,  330,  332,  336,  337,  339,  344,  345,  349,  350,  360,  366,  368,  370
  371,  374,  384,  387,  432,  571,  597,  604,  607,  609,  610,  614,  621,  626,  627,  629
  633,  634,  636,  641,  642,  646,  647,  657,  663,  665,  667,  668,  671,  681,  684,  729
  868,  894,  901,  904,  906,  907,  911,  918,  923,  924,  926,  930,  931,  933,  938,  939
  943,  944,  954,  960,  962,  964,  965,  968,  978,  981, 1026, 1165, 1191, 1198, 1201, 1203
 1204, 1208, 1215, 1220, 1221, 1223, 1227, 1228, 1230, 1235, 1236, 1240, 1241, 1251, 1257, 1259
 1261, 1262, 1265, 1275, 1278, 1323, 1462, 1488, 1495, 1498, 1500, 1501, 1505, 1512, 1517, 1518
 1520, 1524, 1525, 1527, 1532, 1533, 1537, 1538, 1548, 1554, 1556, 1558, 1559, 1562, 1572, 1575
 1620, 1759, 1785, 1792, 1795, 1797, 1798, 1802, 1809, 1814, 1815, 1817, 1821, 1822, 1824, 1829
 1830, 1834, 1835, 1845, 1851, 1853, 1855, 1856, 1859, 1869, 1872, 1917, 2056, 2082, 2089, 2092
 2094, 2095, 2099, 2106, 2111, 2112, 2114, 2118, 2119, 2121, 2126, 2127, 2131, 2132, 2142, 2148
 2150, 2152, 2153, 2156, 2166, 2169, 2214, 2353, 2379, 2386, 2389, 2391, 2392, 2396, 2403, 2408
 2409, 2411, 2415, 2416, 2418, 2423, 2424, 2428, 2429, 2439, 2445, 2447, 2449, 2450, 2453, 2463
 2466, 2511, 2650, 2676, 2683, 2686, 2688, 2689, 2693, 2700, 2705, 2706, 2708, 2712, 2713, 2715
 2720, 2721, 2725, 2726, 2736, 2742, 2744, 2746, 2747, 2750, 2760, 2763, 2808, 2947, 2973, 2980
 2983, 2985, 2986, 2990, 2997, 3002, 3003, 3005, 3009, 3010, 3012, 3017, 3018, 3022, 3023, 3033
 3039, 3041, 3043, 3044, 3047, 3057, 3060, 3105, 3244, 3270, 3277, 3280, 3282, 3283, 3287, 3294
 3299, 3300, 3302, 3306, 3307, 3309, 3314, 3315, 3319, 3320, 3330, 3336, 3338, 3340, 3341, 3344
** ... 14 like lines cut
*Elset, elset=_contact_S6, internal, generate
   36,  5679,   297
*Surface, type=ELEMENT, name=contact
_contact_S5, S5
_contact_S3, S3
_contact_S6, S6
** Section: Section-1
*Solid Section, elset=cylinder, material=Material-1
,
*End Part
**  
**
** ASSEMBLY
**
*Assembly, name=Assembly
**  
*Instance, name=cylinder-1, part=cylinder
*End Instance
**  
*End Assembly
** 
** MATERIALS
** 
*Material, name=Material-1
*Hyperelastic, neo hooke
 0.24, 0.4
