*Heading
** Job name: rec Model name: Model-1
** Generated by: Abaqus/CAE 2021
*Preprint, echo=NO, model=NO, history=NO, contact=NO
**
** PARTS
**
*Part, name=block
*Node
      1,          10.,         -10.,         110.
      2,          10.,         -10.,         108.
      3,          10.,         -10.,         106.
      4,          10.,         -10.,         104.
      5,          10.,         -10.,         102.
      6,          10.,         -10.,         100.
      7,          10.,         -10.,          98.
      8,          10.,         -10.,          96.
      9,          10.,         -10.,          94.
     10,          10.,         -10.,          92.
     11,          10.,         -10.,          90.
     12,          10.,          -8.,         110.
     13,          10.,          -8.,         108.
     14,          10.,          -8.,         106.
     15,          10.,          -8.,         104.
     16,          10.,          -8.,         102.
     17,          10.,          -8.,         100.
     18,          10.,          -8.,          98.
     19,          10.,          -8.,          96.
     20,          10.,          -8.,          94.
** ... 1311 like lines cut
*Element, type=C3D8
   1,  122,  123,  134,  133,    1,    2,   13,   12
   2,  123,  124,  135,  134,    2,    3,   14,   13
   3,  124,  125,  136,  135,    3,    4,   15,   14
   4,  125,  126,  137,  136,    4,    5,   16,   15
   5,  126,  127,  138,  137,    5,    6,   17,   16
   6,  127,  128,  139,  138,    6,    7,   18,   17
   7,  128,  129,  140,  139,    7,    8,   19,   18
   8,  129,  130,  141,  140,    8,    9,   20,   19
   9,  130,  131,  142,  141,    9,   10,   21,   20
  10,  131,  132,  143,  142,   10,   11,   22,   21
  11,  133,  134,  145,  144,   12,   13,   24,   23
  12,  134,  135,  146,  145,   13,   14,   25,   24
  13,  135,  136,  147,  146,   14,   15,   26,   25
  14,  136,  137,  148,  147,   15,   16,   27,   26
  15,  137,  138,  149,  148,   16,   17,   28,   27
  16,  138,  139,  150,  149,   17,   18,   29,   28
  17,  139,  140,  151,  150,   18,   19,   30,   29
  18,  140,  141,  152,  151,   19,   20,   31,   30
  19,  141,  142,  153,  152,   20,   21,   32,   31
  20,  142,  143,  154,  153,   21,   22,   33,   32
** ... 980 like lines cut
*Nset, nset=Set-1, generate
    1,  1331,     1
*Elset, elset=Set-1, generate
    1,  1000,     1
*Elset, elset=_contact_S1, internal, generate
  901,  1000,     1
*Elset, elset=_contact_S4, internal, generate
   10,  1000,    10
*Elset, elset=_contact_S6, internal, generate
   1,  991,   10
*Elset, elset=_contact_S3, internal
   1,   2,   3,   4,   5,   6,   7,   8,   9,  10, 101, 102, 103, 104, 105, 106
 107, 108, 109, 110, 201, 202, 203, 204, 205, 206, 207, 208, 209, 210, 301, 302
 303, 304, 305, 306, 307, 308, 309, 310, 401, 402, 403, 404, 405, 406, 407, 408
 409, 410, 501, 502, 503, 504, 505, 506, 507, 508, 509, 510, 601, 602, 603, 604
 605, 606, 607, 608, 609, 610, 701, 702, 703, 704, 705, 706, 707, 708, 709, 710
 801, 802, 803, 804, 805, 806, 807, 808, 809, 810, 901, 902, 903, 904, 905, 906
 907, 908, 909, 910
*Elset, elset=_contact_S5, internal
   91,   92,   93,   94,   95,   96,   97,   98,   99,  100,  191,  192,  193,  194,  195,  196
  197,  198,  199,  200,  291,  292,  293,  294,  295,  296,  297,  298,  299,  300,  391,  392
  393,  394,  395,  396,  397,  398,  399,  400,  491,  492,  493,  494,  495,  496,  497,  498
  499,  500,  591,  592,  593,  594,  595,  596,  597,  598,  599,  600,  691,  692,  693,  694
  695,  696,  697,  698,  699,  700,  791,  792,  793,  794,  795,  796,  797,  798,  799,  800
  891,  892,  893,  894,  895,  896,  897,  898,  899,  900,  991,  992,  993,  994,  995,  996
  997,  998,  999, 1000
*Elset, elset=_contact_S2, internal, generate
   1,  100,    1
*Surface, type=ELEMENT, name=contact
_contact_S1, S1
_contact_S4, S4
_contact_S6, S6
_contact_S2, S2
_contact_S3, S3
_contact_S5, S5
** Section: Section-1
*Solid Section, elset=Set-1, material=Material-1
,
*End Part
**  
**
** ASSEMBLY
**
*Assembly, name=Assembly
**  
*Instance, name=rec-1, part=block
*End Instance
**  
*End Assembly
** 
** MATERIALS
** 
*Material, name=Material-1
*Hyperelastic, neo hooke
1.,1.
** ----------------------------------------------------------------
** 
** STEP: Step-1
** 
*Step, name=Step-1, nlgeom=YES
*Static
1., 1., 1e-05, 1.
** 
** OUTPUT REQUESTS
** 
*Restart, write, frequency=0
** 
** FIELD OUTPUT: F-Output-1
** 
*Output, field, variable=PRESELECT
** 
** HISTORY OUTPUT: H-Output-1
** 
*Output, history, variable=PRESELECT
*End Step
