*Heading
** Job name: rec Model name: Model-1
** Generated by: Abaqus/CAE 2021
*Preprint, echo=NO, model=NO, history=NO, contact=NO
**
** PARTS
**
*Part, name=rec
*Node
      1,         12.5,         -10.,         100.
      2,         12.5,  -8.52941132,         100.
      3,         12.5,  -7.05882359,         100.
      4,         12.5,  -5.58823538,         100.
      5,         12.5,  -4.11764717,         100.
      6,         12.5,  -2.64705873,         100.
      7,         12.5,  -1.17647064,         100.
      8,         12.5,  0.294117659,         100.
      9,         12.5,    1.7647059,         100.
     10,         12.5,    3.2352941,         100.
     11,         12.5,   4.70588255,         100.
     12,         12.5,   6.17647076,         100.
     13,         12.5,   7.64705896,         100.
     14,         12.5,   9.11764717,         100.
     15,         12.5,   10.5882349,         100.
     16,         12.5,   12.0588236,         100.
     17,         12.5,   13.5294113,         100.
     18,         12.5,          15.,         100.
     19,         12.5,         -10.,   98.5074615
     20,         12.5,  -8.52941132,   98.5074615
** ... 3652 like lines cut
*Element, type=C3D8
   1, 1225, 1226, 1244, 1243,    1,    2,   20,   19
   2, 1226, 1227, 1245, 1244,    2,    3,   21,   20
   3, 1227, 1228, 1246, 1245,    3,    4,   22,   21
   4, 1228, 1229, 1247, 1246,    4,    5,   23,   22
   5, 1229, 1230, 1248, 1247,    5,    6,   24,   23
   6, 1230, 1231, 1249, 1248,    6,    7,   25,   24
   7, 1231, 1232, 1250, 1249,    7,    8,   26,   25
   8, 1232, 1233, 1251, 1250,    8,    9,   27,   26
   9, 1233, 1234, 1252, 1251,    9,   10,   28,   27
  10, 1234, 1235, 1253, 1252,   10,   11,   29,   28
  11, 1235, 1236, 1254, 1253,   11,   12,   30,   29
  12, 1236, 1237, 1255, 1254,   12,   13,   31,   30
  13, 1237, 1238, 1256, 1255,   13,   14,   32,   31
  14, 1238, 1239, 1257, 1256,   14,   15,   33,   32
  15, 1239, 1240, 1258, 1257,   15,   16,   34,   33
  16, 1240, 1241, 1259, 1258,   16,   17,   35,   34
  17, 1241, 1242, 1260, 1259,   17,   18,   36,   35
  18, 1243, 1244, 1262, 1261,   19,   20,   38,   37
  19, 1244, 1245, 1263, 1262,   20,   21,   39,   38
  20, 1245, 1246, 1264, 1263,   21,   22,   40,   39
** ... 2258 like lines cut
*Nset, nset=Set-2, generate
    1,  3672,     1
*Elset, elset=Set-2, generate
    1,  2278,     1
*Nset, nset=contact, generate
    1,  1224,     1
*Elset, elset=contact, generate
    1,  1139,     1
*Elset, elset=_contact_S2, internal, generate
    1,  1139,     1
*Surface, type=ELEMENT, name=contact
_contact_S2, S2
** Section: Section-1
*Solid Section, elset=Set-2, material=Material-1
,
*End Part
**  
**
** ASSEMBLY
**
*Assembly, name=Assembly
**  
*Instance, name=Part-1-1, part=rec
*End Instance
**  
*End Assembly
** 
** MATERIALS
** 
*Material, name=Material-1
*Density
1.,
*Hyperelastic, neo hooke
1.,1.
